Circuit: * C:\Users\jpa55\Desktop\spice\Draft1.asc

Ignoring BSIM parameter XL
Ignoring BSIM parameter XW
Ignoring BSIM parameter XL
Ignoring BSIM parameter XW
Limiting fall time of source v2 to 2.51992e-021
Warning: Pd = 0 is less than W.
Warning: Ps = 0 is less than W.
Warning: Pd = 0 is less than W.
Warning: Ps = 0 is less than W.
Direct Newton iteration for .op point succeeded.
.step vin=0.0001
.step vin=0.000158489
.step vin=0.000251189
.step vin=0.000398107
.step vin=0.000630957
.step vin=0.001
.step vin=0.00158489
.step vin=0.00251189
.step vin=0.00398107
.step vin=0.00630957
.step vin=0.01


Measurement "tl" FAIL'ed


Date: Fri Mar 11 08:57:16 2022
Total elapsed time: 37.023 seconds.

tnom = 27
temp = 27
method = modified trap
totiter = 273031
traniter = 273013
tranpoints = 115129
accept = 89441
rejected = 25688
matrix size = 13
fillins = 6
solver = Normal
Matrix Compiler1: 1.31 KB object code size  0.2/0.1/[0.1]
Matrix Compiler2: off  [0.1]/0.2/0.1

