Circuit: * C:\Users\jpa55\Desktop\spice\Draft6.asc

Ignoring BSIM parameter XL
Ignoring BSIM parameter XW
Ignoring BSIM parameter XL
Ignoring BSIM parameter XW
Warning: Pd = 0 is less than W.
Warning: Ps = 0 is less than W.
Warning: Pd = 0 is less than W.
Warning: Ps = 0 is less than W.
Direct Newton iteration for .op point succeeded.

Date: Sun Mar 13 14:55:25 2022
Total elapsed time: 0.298 seconds.

tnom = 27
temp = 27
method = modified trap
totiter = 17244
traniter = 17222
tranpoints = 5554
accept = 4338
rejected = 1216
matrix size = 21
fillins = 6
solver = Normal
Matrix Compiler1: 1.66 KB object code size  0.4/0.3/[0.1]
Matrix Compiler2: 2.24 KB object code size  0.2/0.2/[0.2]

