Circuit: * C:\Users\jpa55\Desktop\spice\my_comparator2.asc

Ignoring BSIM parameter XL
Ignoring BSIM parameter XW
Ignoring BSIM parameter XL
Ignoring BSIM parameter XW
Warning: Pd = 0 is less than W.
Warning: Ps = 0 is less than W.
Warning: Pd = 0 is less than W.
Warning: Ps = 0 is less than W.
Direct Newton iteration for .op point succeeded.

Date: Fri Mar 11 10:23:08 2022
Total elapsed time: 7.623 seconds.

tnom = 27
temp = 27
method = modified trap
totiter = 753620
traniter = 753603
tranpoints = 248407
accept = 172174
rejected = 76233
matrix size = 17
fillins = 6
solver = Normal
Matrix Compiler1: 1.43 KB object code size  0.3/0.1/[0.1]
Matrix Compiler2: 1.66 KB object code size  0.2/0.2/[0.2]

