Circuit: * C:\Users\jpa55\Desktop\spice\my_comparator.asc

Ignoring BSIM parameter XL
Ignoring BSIM parameter XW
Ignoring BSIM parameter XL
Ignoring BSIM parameter XW
Warning: Pd = 0 is less than W.
Warning: Ps = 0 is less than W.
Warning: Pd = 0 is less than W.
Warning: Ps = 0 is less than W.
Direct Newton iteration for .op point succeeded.

Date: Sat Mar 12 08:57:53 2022
Total elapsed time: 0.202 seconds.

tnom = 27
temp = 27
method = modified trap
totiter = 7622
traniter = 7605
tranpoints = 2646
accept = 2216
rejected = 430
matrix size = 17
fillins = 6
solver = Normal
Matrix Compiler1: 1.54 KB object code size  0.3/0.2/[0.1]
Matrix Compiler2: 2.04 KB object code size  0.1/0.2/[0.1]

