Circuit: * C:\Users\jpa55\Desktop\spice\offset.asc

Ignoring BSIM parameter XL
Ignoring BSIM parameter XW
Ignoring BSIM parameter XL
Ignoring BSIM parameter XW
Error on line 16 : m:x1:4 x1:n001 n003«:clk» n001«:vdd» n001«:vdd» x1:cmosp l= 1.8e-007  w= 1.8e-006  m= 1  mc=1
	 Unknown parameter "mc"
Limiting fall time of source vin1 to 1.90582e-022
Warning: Pd = 0 is less than W.
Warning: Ps = 0 is less than W.
Warning: Pd = 0 is less than W.
Warning: Ps = 0 is less than W.
Direct Newton iteration for .op point succeeded.
Heightened Def Con from 4.81393e-007 to 4.86072e-007
Heightened Def Con from 5.01397e-007 to 5.05425e-007

offset: v(vinp,vinn)=0.0011575 at 5.11575e-007


Date: Wed Mar 09 22:07:23 2022
Total elapsed time: 0.564 seconds.

tnom = 27
temp = 27
method = modified trap
totiter = 39569
traniter = 39547
tranpoints = 13302
accept = 9778
rejected = 3526
matrix size = 19
fillins = 6
solver = Normal
Matrix Compiler1: 1.51 KB object code size  0.3/0.2/[0.1]
Matrix Compiler2: off  [0.1]/0.2/0.2

