Circuit: * C:\Users\jpa55\work\spice\offset.asc

Ignoring BSIM parameter XL
Ignoring BSIM parameter XW
Ignoring BSIM parameter XL
Ignoring BSIM parameter XW
Limiting fall time of source vin1 to 1.90582e-022
Warning: Pd = 0 is less than W.
Warning: Ps = 0 is less than W.
Warning: Pd = 0 is less than W.
Warning: Ps = 0 is less than W.
Direct Newton iteration for .op point succeeded.

offset: v(vinp,vinn)=0.000516401 at 5.05164e-007


Date: Mon Mar 14 21:21:47 2022
Total elapsed time: 0.597 seconds.

tnom = 27
temp = 27
method = modified trap
totiter = 38316
traniter = 38294
tranpoints = 13310
accept = 10063
rejected = 3247
matrix size = 19
fillins = 6
solver = Normal
Matrix Compiler1: 1.51 KB object code size  0.3/0.1/[0.1]
Matrix Compiler2: 1.81 KB object code size  0.1/0.2/[0.1]

