Circuit: * C:\Users\circuit\spice\offset.asc

Ignoring BSIM parameter XL
Ignoring BSIM parameter XW
Ignoring BSIM parameter XL
Ignoring BSIM parameter XW
Ignoring BSIM parameter XL
Ignoring BSIM parameter XW
Ignoring BSIM parameter XL
Ignoring BSIM parameter XW
Limiting fall time of source vin to 1.90582e-022
Warning: Pd = 0 is less than W.
Warning: Ps = 0 is less than W.
Warning: Pd = 0 is less than W.
Warning: Ps = 0 is less than W.
Warning: Pd = 0 is less than W.
Warning: Ps = 0 is less than W.
Warning: Pd = 0 is less than W.
Warning: Ps = 0 is less than W.
Early termination of direct N-R iteration.
Direct Newton iteration failed to find .op point.  (Use ".option noopiter" to skip.)
Starting Gmin stepping
Gmin = 10
Gmin = 1.07374
Gmin = 0.115292
Gmin = 0.0123794
Gmin = 0.00132923
Gmin = 0.000142725
Gmin = 1.5325e-005
Gmin = 1.6455e-006
Gmin = 1.76685e-007
Gmin = 1.89714e-008
Gmin = 2.03704e-009
Gmin = 2.18725e-010
Gmin = 2.34854e-011
Gmin = 2.52173e-012
Gmin = 2.70769e-013
Gmin = 0
Gmin stepping succeeded in finding the operating point.


offset: v(vinp,vinn)=0.00616518 at 5.61652e-007


Date: Fri Apr 22 16:26:33 2022
Total elapsed time: 1.393 seconds.

tnom = 27
temp = 27
method = modified trap
totiter = 41813
traniter = 41329
tranpoints = 14529
accept = 10863
rejected = 3666
matrix size = 99
fillins = 211
solver = Normal
Thread vector: 48.1/17.6[2] 3.7/7.4[1] 3.4/2.9[2] 1.6/5.2[1]  2592/500
Matrix Compiler1: 21.50 KB object code size  4.4/2.6/[1.3]
Matrix Compiler2: 13.01 KB object code size  2.7/3.5/[2.5]

