Circuit: * C:\Users\circuit\spice\offset.asc

Ignoring BSIM parameter XL
Ignoring BSIM parameter XW
Ignoring BSIM parameter XL
Ignoring BSIM parameter XW
Limiting fall time of source vin1 to 1.90582e-022
Warning: Pd = 0 is less than W.
Warning: Ps = 0 is less than W.
Warning: Pd = 0 is less than W.
Warning: Ps = 0 is less than W.
Direct Newton iteration for .op point succeeded.

offset: v(vinp,vinn)=0.000498389 at 5.04984e-007


Date: Wed Apr 13 16:14:12 2022
Total elapsed time: 0.836 seconds.

tnom = 27
temp = 27
method = modified trap
totiter = 37775
traniter = 37753
tranpoints = 13440
accept = 10169
rejected = 3271
matrix size = 19
fillins = 6
solver = Normal
Matrix Compiler1: 1.51 KB object code size  0.4/0.2/[0.1]
Matrix Compiler2: 1.81 KB object code size  0.2/0.3/[0.2]

