Circuit: * C:\Users\jpa55\work\spice\saradc.asc

Ignoring BSIM parameter XL
Ignoring BSIM parameter XW
Ignoring BSIM parameter XL
Ignoring BSIM parameter XW
WARNING: Less than two connections to node DOUT.  This node is used by B1.
WARNING: Less than two connections to node N0V.  This node is used by A27.
Warning: Pd = 0 is less than W.
Warning: Ps = 0 is less than W.
Warning: Pd = 0 is less than W.
Warning: Ps = 0 is less than W.
Direct Newton iteration for .op point succeeded.

reg1: v(dout)=41.4 at 2e-007


Date: Thu Mar 24 22:00:36 2022
Total elapsed time: 10.736 seconds.

tnom = 27
temp = 27
method = modified trap
totiter = 687103
traniter = 687072
tranpoints = 219529
accept = 160439
rejected = 59090
matrix size = 90
fillins = 15
solver = Normal
Thread vector: 12.3/7.0[3] 3.7/3.0[3] 1.4/1.5[1] 0.3/1.1[1]  2592/500
Matrix Compiler1: 4.06 KB object code size  0.7/0.5/[0.3]
Matrix Compiler2: 5.74 KB object code size  0.4/0.7/[0.3]

