Circuit: * C:\Users\jpa55\Desktop\spice\saradc.asc

Ignoring BSIM parameter XL
Ignoring BSIM parameter XW
Ignoring BSIM parameter XL
Ignoring BSIM parameter XW
WARNING: Less than two connections to node DOUT.  This node is used by B1.
WARNING: Less than two connections to node N0V.  This node is used by A27.
Warning: Pd = 0 is less than W.
Warning: Ps = 0 is less than W.
Warning: Pd = 0 is less than W.
Warning: Ps = 0 is less than W.
Direct Newton iteration for .op point succeeded.

reg1: v(dout)=0 at 2e-007


Date: Sun Mar 13 16:16:02 2022
Total elapsed time: 8.568 seconds.

tnom = 27
temp = 27
method = modified trap
totiter = 556907
traniter = 556878
tranpoints = 191698
accept = 141694
rejected = 50004
matrix size = 90
fillins = 15
solver = Normal
Thread vector: 11.6/6.3[3] 3.7/2.4[3] 1.2/1.5[1] 0.2/1.1[1]  2592/500
Matrix Compiler1: 4.06 KB object code size  0.7/0.4/[0.2]
Matrix Compiler2: 5.74 KB object code size  0.4/0.6/[0.3]

