Circuit: * C:\Users\jpa55\work\spice\saradc.asc

Ignoring BSIM parameter XL
Ignoring BSIM parameter XW
Ignoring BSIM parameter XL
Ignoring BSIM parameter XW
WARNING: Less than two connections to node DOUT.  This node is used by B1.
WARNING: Less than two connections to node N0V.  This node is used by A27.
Warning: Pd = 0 is less than W.
Warning: Ps = 0 is less than W.
Warning: Pd = 0 is less than W.
Warning: Ps = 0 is less than W.
Direct Newton iteration for .op point succeeded.
N-Period=all
Fourier components of V(dout)
DC component:0.505832

Harmonic	Frequency	 Fourier 	Normalized	 Phase  	Normalized
 Number 	  [Hz]   	Component	 Component	[degree]	Phase [deg]
    1   	9.912e+05	4.969e-01	1.000e+00	  -47.79°	    0.00°
    2   	1.982e+06	6.632e-03	1.335e-02	  153.70°	  201.48°
    3   	2.974e+06	8.555e-03	1.722e-02	  171.78°	  219.57°
    4   	3.965e+06	7.484e-03	1.506e-02	 -175.41°	 -127.62°
    5   	4.956e+06	6.389e-03	1.286e-02	 -161.23°	 -113.44°
    6   	5.947e+06	5.059e-03	1.018e-02	 -156.51°	 -108.72°
    7   	6.939e+06	2.263e-03	4.554e-03	 -151.18°	 -103.39°
    8   	7.930e+06	1.158e-03	2.330e-03	 -166.77°	 -118.99°
    9   	8.921e+06	7.985e-03	1.607e-02	  133.67°	  181.45°
   10   	9.912e+06	1.134e-03	2.283e-03	   51.45°	   99.24°
Total Harmonic Distortion: 3.549888%(20.573277%)



reg1: v(dout)=0.793651 at 2e-007


Date: Tue Apr 05 08:32:40 2022
Total elapsed time: 9.950 seconds.

tnom = 27
temp = 27
method = modified trap
totiter = 571002
traniter = 570973
tranpoints = 194477
accept = 141853
rejected = 52624
matrix size = 90
fillins = 15
solver = Normal
Thread vector: 14.2/7.2[3] 3.8/2.5[3] 1.3/1.6[1] 0.3/1.1[1]  2592/500
Matrix Compiler1: 4.06 KB object code size  0.8/0.4/[0.2]
Matrix Compiler2: off  [0.4]/0.8/0.5

