Circuit: * C:\Users\circuit\spice\saradc.asc

Ignoring BSIM parameter XL
Ignoring BSIM parameter XW
Ignoring BSIM parameter XL
Ignoring BSIM parameter XW
Limiting fall time of source v3 to 2.51992e-021
WARNING: Less than two connections to node DOUT.  This node is used by B1.
WARNING: Less than two connections to node N0V.  This node is used by A27.
Warning: Pd = 0 is less than W.
Warning: Ps = 0 is less than W.
Warning: Pd = 0 is less than W.
Warning: Ps = 0 is less than W.
Direct Newton iteration for .op point succeeded.
Heightened Def Con from 1.46658e-006 to 1.46658e-006

Date: Mon Mar 14 15:28:29 2022
Total elapsed time: 5.747 seconds.

tnom = 27
temp = 27
method = modified trap
totiter = 71744
traniter = 71715
tranpoints = 24115
accept = 17320
rejected = 6796
matrix size = 90
fillins = 15
solver = Normal
Thread vector: 17.4/14.1[2] 8.4/28.2[1] 1.2/2.7[1] 1.5/6.9[1]  2592/500
Matrix Compiler1: 4.06 KB object code size  2.0/0.7/[0.4]
Matrix Compiler2: off  [0.6]/1.2/0.9

