Circuit: * C:\Users\circuit\spice\saradc.asc

Ignoring BSIM parameter XL
Ignoring BSIM parameter XW
Ignoring BSIM parameter XL
Ignoring BSIM parameter XW
WARNING: Less than two connections to node DOUT.  This node is used by B1.
WARNING: Less than two connections to node N0V.  This node is used by A27.
Warning: Pd = 0 is less than W.
Warning: Ps = 0 is less than W.
Warning: Pd = 0 is less than W.
Warning: Ps = 0 is less than W.
Direct Newton iteration for .op point succeeded.
N-Period=3
Fourier components of V(dout)
DC component:0.504089

Harmonic	Frequency	 Fourier 	Normalized	 Phase  	Normalized
 Number 	  [Hz]   	Component	 Component	[degree]	Phase [deg]
    1   	9.912e+05	5.004e-01	1.000e+00	  -47.55°	    0.00°
    2   	1.982e+06	1.934e-03	3.865e-03	 -127.72°	  -80.17°
    3   	2.974e+06	8.073e-04	1.613e-03	   30.66°	   78.22°
    4   	3.965e+06	8.602e-04	1.719e-03	  -90.55°	  -42.99°
    5   	4.956e+06	1.195e-03	2.389e-03	  -23.22°	   24.33°
    6   	5.947e+06	1.036e-03	2.071e-03	    5.96°	   53.52°
    7   	6.938e+06	2.081e-03	4.159e-03	   30.68°	   78.24°
    8   	7.930e+06	3.026e-03	6.048e-03	   76.81°	  124.37°
    9   	8.921e+06	4.733e-02	9.458e-02	  114.57°	  162.12°
   10   	9.912e+06	7.811e-03	1.561e-02	  -22.98°	   24.57°
Total Harmonic Distortion: 9.630338%(18.204308%)



reg1: v(dout)=0.793651 at 2e-007


Date: Mon Apr 04 17:07:51 2022
Total elapsed time: 22.886 seconds.

tnom = 27
temp = 27
method = modified trap
totiter = 583054
traniter = 583025
tranpoints = 199618
accept = 146763
rejected = 52855
matrix size = 90
fillins = 15
solver = Normal
Thread vector: 35.4/23.6[2] 5.7/4.5[2] 2.0/2.7[1] 0.4/4.0[1]  2592/500
Matrix Compiler1: 4.06 KB object code size  1.4/1.3/[0.3]
Matrix Compiler2: 5.74 KB object code size  2.3/1.0/[0.4]

