Circuit: * C:\Users\jpa55\work\spice\saradc.asc

Ignoring BSIM parameter XL
Ignoring BSIM parameter XW
Ignoring BSIM parameter XL
Ignoring BSIM parameter XW
WARNING: Less than two connections to node DOUT.  This node is used by B1.
WARNING: Less than two connections to node N0V.  This node is used by A27.
Warning: Pd = 0 is less than W.
Warning: Ps = 0 is less than W.
Warning: Pd = 0 is less than W.
Warning: Ps = 0 is less than W.
Direct Newton iteration for .op point succeeded.
Heightened Def Con from 5.1051e-006 to 5.1051e-006
Heightened Def Con from 7.41598e-006 to 7.41607e-006
N-Period=50
Fourier components of V(dout)
DC component:0.502185

Harmonic	Frequency	 Fourier 	Normalized	 Phase  	Normalized
 Number 	  [Hz]   	Component	 Component	[degree]	Phase [deg]
    1   	1.000e+06	5.020e-01	1.000e+00	  -48.29°	    0.00°
    2   	2.000e+06	2.857e-03	5.691e-03	  -11.93°	   36.36°
    3   	3.000e+06	2.226e-03	4.434e-03	 -125.73°	  -77.44°
    4   	4.000e+06	1.291e-03	2.571e-03	 -133.44°	  -85.14°
    5   	5.000e+06	3.170e-03	6.315e-03	 -159.15°	 -110.86°
    6   	6.000e+06	1.434e-03	2.856e-03	  155.79°	  204.08°
    7   	7.000e+06	1.464e-03	2.916e-03	  156.12°	  204.41°
    8   	8.000e+06	1.343e-03	2.675e-03	   95.37°	  143.66°
    9   	9.000e+06	5.633e-02	1.122e-01	  110.26°	  158.55°
   10   	1.000e+07	4.506e-04	8.977e-04	  115.58°	  163.87°
Total Harmonic Distortion: 11.276427%(19.024757%)



reg1: v(dout)=0.809524 at 2e-007


Date: Sun Apr 03 23:17:08 2022
Total elapsed time: 9.980 seconds.

tnom = 27
temp = 27
method = modified trap
totiter = 576987
traniter = 576958
tranpoints = 196410
accept = 143594
rejected = 52818
matrix size = 90
fillins = 15
solver = Normal
Thread vector: 11.7/6.8[3] 3.9/2.4[3] 1.3/1.6[1] 0.2/1.1[1]  2592/500
Matrix Compiler1: 4.06 KB object code size  0.7/0.4/[0.2]
Matrix Compiler2: 5.74 KB object code size  0.4/0.8/[0.3]

