Circuit: * C:\Users\circuit\spice\saradc.asc

Ignoring BSIM parameter XL
Ignoring BSIM parameter XW
Ignoring BSIM parameter XL
Ignoring BSIM parameter XW
Limiting fall time of source v3 to 2.51992e-021
WARNING: Less than two connections to node DOUT.  This node is used by B1.
WARNING: Less than two connections to node X2:N0V.  This node is used by A:X2:11.
Warning: Pd = 0 is less than W.
Warning: Ps = 0 is less than W.
Warning: Pd = 0 is less than W.
Warning: Ps = 0 is less than W.
Direct Newton iteration for .op point succeeded.
Heightened Def Con from 1.5e-011 ++++++++++++++++++++++++++++++++++++++++++++++++++Fatal Error: Analysis:  Time step too small; time = 1.5e-011, timestep = 1.25e-019: trouble with dflop-instance a:x2:8

