Circuit: * C:\Users\circuit\spice\saradc.asc

Ignoring BSIM parameter XL
Ignoring BSIM parameter XW
Ignoring BSIM parameter XL
Ignoring BSIM parameter XW
WARNING: Less than two connections to node DOUT.  This node is used by B1.
WARNING: Less than two connections to node N0V.  This node is used by A27.
Warning: Pd = 0 is less than W.
Warning: Ps = 0 is less than W.
Warning: Pd = 0 is less than W.
Warning: Ps = 0 is less than W.
Direct Newton iteration for .op point succeeded.

reg1: v(dout)=42 at 2e-007


Date: Tue Mar 15 17:36:49 2022
Total elapsed time: 16.964 seconds.

tnom = 27
temp = 27
method = modified trap
totiter = 580109
traniter = 580080
tranpoints = 199058
accept = 146466
rejected = 52592
matrix size = 90
fillins = 15
solver = Normal
Thread vector: 16.8/11.8[2] 5.1/4.6[2] 1.5/2.6[1] 0.4/3.9[1]  2592/500
Matrix Compiler1: 4.06 KB object code size  1.1/0.5/[0.3]
Matrix Compiler2: 5.74 KB object code size  0.6/0.9/[0.4]

