Circuit: * C:\Users\circuit\spice\saradc.asc

Ignoring BSIM parameter XL
Ignoring BSIM parameter XW
Ignoring BSIM parameter XL
Ignoring BSIM parameter XW
Limiting fall time of source vin to 2.51992e-021
WARNING: Less than two connections to node DOUT.  This node is used by B1.
WARNING: Less than two connections to node N0V.  This node is used by A27.
Warning: Pd = 0 is less than W.
Warning: Ps = 0 is less than W.
Warning: Pd = 0 is less than W.
Warning: Ps = 0 is less than W.
Direct Newton iteration for .op point succeeded.
N-Period=all
Fourier components of V(dout)
DC component:31.5833

Harmonic	Frequency	 Fourier 	Normalized	 Phase  	Normalized
 Number 	  [Hz]   	Component	 Component	[degree]	Phase [deg]
    1   	1.000e+06	1.582e+00	1.000e+00	 -179.84°	    0.00°
    2   	2.000e+06	7.786e-01	4.922e-01	 -179.88°	   -0.04°
    3   	3.000e+06	5.093e-01	3.220e-01	  179.82°	  359.66°
    4   	4.000e+06	3.767e-01	2.381e-01	  179.37°	  359.22°
    5   	5.000e+06	5.946e-01	3.759e-01	 -164.53°	   15.32°
Total Harmonic Distortion: 73.747425%(1672.551948%)



reg1: v(dout)=0 at 2e-007


Date: Tue Apr 05 14:15:45 2022
Total elapsed time: 26.988 seconds.

tnom = 27
temp = 27
method = modified trap
totiter = 588112
traniter = 588083
tranpoints = 200047
accept = 145929
rejected = 54118
matrix size = 90
fillins = 15
solver = Normal
Matrix Compiler1: 4.06 KB object code size  1.9/1.4/[0.5]
Matrix Compiler2: 5.74 KB object code size  1.6/2.8/[0.6]

