Circuit: *

Ignoring BSIM parameter XL
Ignoring BSIM parameter XW
Ignoring BSIM parameter XL
Ignoring BSIM parameter XW
Warning: Pd = 0 is less than W.
Warning: Ps = 0 is less than W.
Warning: Pd = 0 is less than W.
Warning: Ps = 0 is less than W.
Direct Newton iteration failed to find .op point.  (Use ".option noopiter" to skip.)
Starting Gmin stepping
Gmin = 10
Gmin = 1.07374
Gmin = 0.115292
Gmin = 0.0123794
Gmin = 0.00132923
Gmin = 0.000142725
Gmin = 1.5325e-005
Gmin = 1.6455e-006
Gmin = 1.76685e-007
Gmin = 1.89714e-008
Gmin = 2.03704e-009
Gmin = 2.18725e-010
Gmin = 2.34854e-011
Gmin = 2.52173e-012
Gmin = 2.70769e-013
vernier = 0.5
vernier = 0.25
Gmin = 1.59972e-013
vernier = 0.333333
vernier = 0.166667
vernier = 0.0833333
Gmin = 1.25516e-013
vernier = 0.0416667
vernier = 0.0555555
Gmin = 1.15131e-013
vernier = 0.0277778
vernier = 0.0138889
vernier = 0.00694444
Gmin = 1.14328e-013
vernier = 0.00347222
vernier = 0.00173611
vernier = 0.000868055
Gmin = 1.13834e-013
vernier = 0.000434028
Gmin = 0
Gmin stepping succeeded in finding the operating point.



Measurement "tl" FAIL'ed


Date: Fri Apr 22 15:34:28 2022
Total elapsed time: 0.693 seconds.

tnom = 27
temp = 27
method = modified trap
totiter = 6846
traniter = 3134
tranpoints = 1340
accept = 1245
rejected = 95
matrix size = 93
fillins = 184
solver = Normal
Matrix Compiler1: 18.84 KB object code size  3.9/2.3/[1.2]
Matrix Compiler2: off  [1.8]/3.5/3.5

