Circuit: * C:\Users\circuit\spice\tb_my_comparator.asc

Ignoring BSIM parameter XL
Ignoring BSIM parameter XW
Ignoring BSIM parameter XL
Ignoring BSIM parameter XW
Warning: Pd = 0 is less than W.
Warning: Ps = 0 is less than W.
Warning: Pd = 0 is less than W.
Warning: Ps = 0 is less than W.
Direct Newton iteration for .op point succeeded.

tl: v(voutp)=1.72 AT 1.58266e-009


Date: Tue Apr 05 15:57:51 2022
Total elapsed time: 0.557 seconds.

tnom = 27
temp = 27
method = modified trap
totiter = 2955
traniter = 2933
tranpoints = 1267
accept = 1190
rejected = 77
matrix size = 17
fillins = 6
solver = Normal
Matrix Compiler1: 1.45 KB object code size  0.4/0.4/[0.2]
Matrix Compiler2: 1.75 KB object code size  0.2/0.4/[0.2]

