Circuit: * C:\Users\jpa55\work\spice\tb_my_comparator.asc

Ignoring BSIM parameter XL
Ignoring BSIM parameter XW
Ignoring BSIM parameter XL
Ignoring BSIM parameter XW
Warning: Pd = 0 is less than W.
Warning: Ps = 0 is less than W.
Warning: Pd = 0 is less than W.
Warning: Ps = 0 is less than W.
Direct Newton iteration for .op point succeeded.
.step vin=0.0001
.step vin=0.000158489
.step vin=0.000251189
.step vin=0.000398107
.step vin=0.000630957
.step vin=0.001
.step vin=0.00158489
.step vin=0.00251189
.step vin=0.00398107
.step vin=0.00630957
.step vin=0.01


Measurement: tl
  step	v(voutp)=1.72
     1	1.71282e-009
     2	1.69723e-009
     3	1.68348e-009
     4	1.66728e-009
     5	1.65218e-009
     6	1.63707e-009
     7	1.61994e-009
     8	1.60433e-009
     9	1.58777e-009
    10	1.57426e-009
    11	1.55877e-009


Date: Mon Mar 14 21:22:45 2022
Total elapsed time: 0.628 seconds.

tnom = 27
temp = 27
method = modified trap
totiter = 2962
traniter = 2940
tranpoints = 1273
accept = 1198
rejected = 75
matrix size = 17
fillins = 6
solver = Normal
Matrix Compiler1: 1.45 KB object code size  0.3/0.1/[0.1]
Matrix Compiler2: 1.75 KB object code size  0.1/0.2/[0.1]

