Circuit: * C:\Users\jpa55\Desktop\spice\tb_my_comparator.asc

Ignoring BSIM parameter XL
Ignoring BSIM parameter XW
Ignoring BSIM parameter XL
Ignoring BSIM parameter XW
Warning: Pd = 0 is less than W.
Warning: Ps = 0 is less than W.
Warning: Pd = 0 is less than W.
Warning: Ps = 0 is less than W.
Direct Newton iteration for .op point succeeded.
.step vin=0.0001
.step vin=0.000158489
.step vin=0.000251189
.step vin=0.000398107
.step vin=0.000630957
.step vin=0.001
.step vin=0.00158489
.step vin=0.00251189
.step vin=0.00398107
.step vin=0.00630957
.step vin=0.01


Measurement: tl
  step	v(voutp)=1.72
     1	2.54457e-009
     2	2.53079e-009
     3	2.51911e-009
     4	2.50437e-009
     5	2.4921e-009
     6	2.47321e-009
     7	2.45402e-009
     8	2.43226e-009
     9	2.40422e-009
    10	2.36653e-009
    11	2.31095e-009


Date: Wed Mar 09 21:48:56 2022
Total elapsed time: 0.966 seconds.

tnom = 27
temp = 27
method = modified trap
totiter = 2907
traniter = 2885
tranpoints = 1248
accept = 1195
rejected = 53
matrix size = 17
fillins = 6
solver = Normal
Matrix Compiler1: 1.45 KB object code size  0.9/0.3/[0.1]
Matrix Compiler2: 1.75 KB object code size  0.3/0.2/[0.2]

