Circuit: * C:\Users\circuit\spice\test_cmos_or.asc

Ignoring BSIM parameter XL
Ignoring BSIM parameter XW
Ignoring BSIM parameter XL
Ignoring BSIM parameter XW
Warning: Pd = 0 is less than W.
Warning: Ps = 0 is less than W.
Warning: Pd = 0 is less than W.
Warning: Ps = 0 is less than W.
Direct Newton iteration for .op point succeeded.

Date: Fri Apr 22 12:14:43 2022
Total elapsed time: 0.353 seconds.

tnom = 27
temp = 27
method = modified trap
totiter = 3165
traniter = 3152
tranpoints = 1323
accept = 1239
rejected = 84
matrix size = 9
fillins = 0
solver = Normal
Matrix Compiler1: 332 bytes object code size  0.1/0.1/[0.1]
Matrix Compiler2: 799 bytes object code size  0.1/0.1/[0.1]

