Circuit: * C:\Users\circuit\spice\transmisson_gate.asc

Ignoring BSIM parameter XL
Ignoring BSIM parameter XW
Ignoring BSIM parameter XL
Ignoring BSIM parameter XW
Warning: Pd = 0 is less than W.
Warning: Ps = 0 is less than W.
Warning: Pd = 0 is less than W.
Warning: Ps = 0 is less than W.
Direct Newton iteration for .op point succeeded.

Date: Tue Apr 19 15:28:42 2022
Total elapsed time: 0.229 seconds.

tnom = 27
temp = 27
method = modified trap
totiter = 10037
traniter = 10012
tranpoints = 4683
accept = 3922
rejected = 761
matrix size = 9
fillins = 0
solver = Normal
Matrix Compiler1: 332 bytes object code size  0.1/0.1/[0.0]
Matrix Compiler2: 683 bytes object code size  0.1/0.1/[0.0]

