Circuit: * C:\Users\jpa55\work\spice\saradc\saradc.asc

Ignoring BSIM parameter XL
Ignoring BSIM parameter XW
Ignoring BSIM parameter XL
Ignoring BSIM parameter XW
Limiting fall time of source vin to 2.51992e-021
WARNING: Less than two connections to node DOUT.  This node is used by B1.
WARNING: Less than two connections to node N006.  This node is used by R:X1:064_S_COMP.
WARNING: Less than two connections to node X2:N0V.  This node is used by A:X2:11.
Warning: Pd = 0 is less than W.
Warning: Ps = 0 is less than W.
Warning: Pd = 0 is less than W.
Warning: Ps = 0 is less than W.
Early termination of direct N-R iteration.
Direct Newton iteration failed to find .op point.  (Use ".option noopiter" to skip.)
Starting Gmin stepping
Gmin = 10
Gmin = 1.07374
Gmin = 0.115292
Gmin = 0.0123794
Gmin = 0.00132923
Gmin = 0.000142725
Gmin = 1.5325e-005
Gmin = 1.6455e-006
Gmin = 1.76685e-007
Gmin = 1.89714e-008
Gmin = 2.03704e-009
Gmin = 2.18725e-010
Gmin = 2.34854e-011
Gmin = 2.52173e-012
Gmin = 2.70769e-013
Gmin = 0
Gmin stepping succeeded in finding the operating point.

Ignoring empty pin current: Ix(x76:in)
Ignoring empty pin current: Ix(x76:out)
Ignoring empty pin current: Ix(x76:in)
Ignoring empty pin current: Ix(x76:out)
N-Period=all
Fourier components of V(dout)
DC component:0.493631

Harmonic	Frequency	 Fourier 	Normalized	 Phase  	Normalized
 Number 	  [Hz]   	Component	 Component	[degree]	Phase [deg]
    1   	1.000e+06	2.503e-02	1.000e+00	  179.28°	    0.00°
    2   	2.000e+06	1.230e-02	4.915e-01	  179.52°	    0.24°
    3   	3.000e+06	8.161e-03	3.260e-01	 -179.43°	 -358.71°
    4   	4.000e+06	6.199e-03	2.476e-01	 -178.74°	 -358.02°
    5   	5.000e+06	2.614e-03	1.044e-01	  105.49°	  -73.80°
Total Harmonic Distortion: 64.811813%(1677.411705%)



output_code_1: v(dout)=0 at 2e-007
analog_input_1: v(vin)=0.015625 at 2e-007
output_code_2: v(dout)=0 at 2.05e-007
analog_input_2: v(vin)=0.0160156 at 2.05e-007
output_code_3: v(dout)=0 at 2.1e-007
analog_input_3: v(vin)=0.0164063 at 2.1e-007
output_code_4: v(dout)=0 at 2.15e-007
analog_input_4: v(vin)=0.0167969 at 2.15e-007
output_code_5: v(dout)=0 at 2.2e-007
analog_input_5: v(vin)=0.0171875 at 2.2e-007
output_code_6: v(dout)=0 at 2.25e-007
analog_input_6: v(vin)=0.0175781 at 2.25e-007
output_code_7: v(dout)=0 at 2.3e-007
analog_input_7: v(vin)=0.0179688 at 2.3e-007
output_code_8: v(dout)=0 at 2.35e-007
analog_input_8: v(vin)=0.0183594 at 2.35e-007
output_code_9: v(dout)=0 at 2.4e-007
analog_input_9: v(vin)=0.01875 at 2.4e-007
output_code_10: v(dout)=0 at 2.45e-007
analog_input_10: v(vin)=0.0191406 at 2.45e-007
output_code_11: v(dout)=0 at 2.5e-007
analog_input_11: v(vin)=0.0195313 at 2.5e-007
output_code_12: v(dout)=0 at 2.55e-007
analog_input_12: v(vin)=0.0199219 at 2.55e-007
output_code_13: v(dout)=0 at 2.6e-007
analog_input_13: v(vin)=0.0203125 at 2.6e-007
output_code_14: v(dout)=0 at 2.65e-007
analog_input_14: v(vin)=0.0207031 at 2.65e-007
output_code_15: v(dout)=0 at 2.7e-007
analog_input_15: v(vin)=0.0210938 at 2.7e-007
output_code_16: v(dout)=0 at 2.75e-007
analog_input_16: v(vin)=0.0214844 at 2.75e-007
output_code_17: v(dout)=0 at 2.8e-007
analog_input_17: v(vin)=0.021875 at 2.8e-007
output_code_18: v(dout)=0 at 2.85e-007
analog_input_18: v(vin)=0.0222656 at 2.85e-007
output_code_19: v(dout)=0 at 2.9e-007
analog_input_19: v(vin)=0.0226563 at 2.9e-007
output_code_20: v(dout)=0 at 2.95e-007
analog_input_20: v(vin)=0.0230469 at 2.95e-007
output_code_21: v(dout)=0 at 3e-007
analog_input_21: v(vin)=0.0234375 at 3e-007
output_code_22: v(dout)=0 at 3.05e-007
analog_input_22: v(vin)=0.0238281 at 3.05e-007
output_code_23: v(dout)=0 at 3.1e-007
analog_input_23: v(vin)=0.0242188 at 3.1e-007
output_code_24: v(dout)=0 at 3.15e-007
analog_input_24: v(vin)=0.0246094 at 3.15e-007
output_code_25: v(dout)=0 at 3.2e-007
analog_input_25: v(vin)=0.025 at 3.2e-007
output_code_26: v(dout)=0 at 3.25e-007
analog_input_26: v(vin)=0.0253906 at 3.25e-007
output_code_27: v(dout)=0 at 3.3e-007
analog_input_27: v(vin)=0.0257813 at 3.3e-007
output_code_28: v(dout)=0 at 3.35e-007
analog_input_28: v(vin)=0.0261719 at 3.35e-007
output_code_29: v(dout)=0 at 3.4e-007
analog_input_29: v(vin)=0.0265625 at 3.4e-007
output_code_30: v(dout)=0 at 3.45e-007
analog_input_30: v(vin)=0.0269531 at 3.45e-007
output_code_31: v(dout)=0 at 3.5e-007
analog_input_31: v(vin)=0.0273438 at 3.5e-007
output_code_32: v(dout)=0 at 3.55e-007
analog_input_32: v(vin)=0.0277344 at 3.55e-007
output_code_33: v(dout)=0 at 3.6e-007
analog_input_33: v(vin)=0.028125 at 3.6e-007
output_code_34: v(dout)=0 at 3.65e-007
analog_input_34: v(vin)=0.0285156 at 3.65e-007
output_code_35: v(dout)=0 at 3.7e-007
analog_input_35: v(vin)=0.0289063 at 3.7e-007
output_code_36: v(dout)=0 at 3.75e-007
analog_input_36: v(vin)=0.0292969 at 3.75e-007
output_code_37: v(dout)=0 at 3.8e-007
analog_input_37: v(vin)=0.0296875 at 3.8e-007
output_code_38: v(dout)=0.015873 at 3.85e-007
analog_input_38: v(vin)=0.0300781 at 3.85e-007
output_code_39: v(dout)=0.015873 at 3.9e-007
analog_input_39: v(vin)=0.0304688 at 3.9e-007
output_code_40: v(dout)=0.015873 at 3.95e-007
analog_input_40: v(vin)=0.0308594 at 3.95e-007
output_code_41: v(dout)=0.015873 at 4e-007
analog_input_41: v(vin)=0.03125 at 4e-007
output_code_42: v(dout)=0.015873 at 4.05e-007
analog_input_42: v(vin)=0.0316406 at 4.05e-007
output_code_43: v(dout)=0.015873 at 4.1e-007
analog_input_43: v(vin)=0.0320313 at 4.1e-007
output_code_44: v(dout)=0.015873 at 4.15e-007
analog_input_44: v(vin)=0.0324219 at 4.15e-007
output_code_45: v(dout)=0.015873 at 4.2e-007
analog_input_45: v(vin)=0.0328125 at 4.2e-007
output_code_46: v(dout)=0.015873 at 4.25e-007
analog_input_46: v(vin)=0.0332031 at 4.25e-007
output_code_47: v(dout)=0.015873 at 4.3e-007
analog_input_47: v(vin)=0.0335938 at 4.3e-007
output_code_48: v(dout)=0.015873 at 4.35e-007
analog_input_48: v(vin)=0.0339844 at 4.35e-007
output_code_49: v(dout)=0.015873 at 4.4e-007
analog_input_49: v(vin)=0.034375 at 4.4e-007
output_code_50: v(dout)=0.015873 at 4.45e-007
analog_input_50: v(vin)=0.0347656 at 4.45e-007
output_code_51: v(dout)=0.015873 at 4.5e-007
analog_input_51: v(vin)=0.0351563 at 4.5e-007
output_code_52: v(dout)=0.015873 at 4.55e-007
analog_input_52: v(vin)=0.0355469 at 4.55e-007
output_code_53: v(dout)=0.015873 at 4.6e-007
analog_input_53: v(vin)=0.0359375 at 4.6e-007
output_code_54: v(dout)=0.015873 at 4.65e-007
analog_input_54: v(vin)=0.0363281 at 4.65e-007
output_code_55: v(dout)=0.015873 at 4.7e-007
analog_input_55: v(vin)=0.0367188 at 4.7e-007
output_code_56: v(dout)=0.015873 at 4.75e-007
analog_input_56: v(vin)=0.0371094 at 4.75e-007
output_code_57: v(dout)=0.015873 at 4.8e-007
analog_input_57: v(vin)=0.0375 at 4.8e-007
output_code_58: v(dout)=0.015873 at 4.85e-007
analog_input_58: v(vin)=0.0378906 at 4.85e-007
output_code_59: v(dout)=0.015873 at 4.9e-007
analog_input_59: v(vin)=0.0382813 at 4.9e-007
output_code_60: v(dout)=0.015873 at 4.95e-007
analog_input_60: v(vin)=0.0386719 at 4.95e-007
output_code_61: v(dout)=0.015873 at 5e-007
analog_input_61: v(vin)=0.0390625 at 5e-007
output_code_62: v(dout)=0.015873 at 5.05e-007
analog_input_62: v(vin)=0.0394531 at 5.05e-007
output_code_63: v(dout)=0.015873 at 5.1e-007
analog_input_63: v(vin)=0.0398438 at 5.1e-007
output_code_64: v(dout)=0.015873 at 5.15e-007
analog_input_64: v(vin)=0.0402344 at 5.15e-007
output_code_65: v(dout)=0.015873 at 5.2e-007
analog_input_65: v(vin)=0.040625 at 5.2e-007
output_code_66: v(dout)=0.015873 at 5.25e-007
analog_input_66: v(vin)=0.0410156 at 5.25e-007
output_code_67: v(dout)=0.015873 at 5.3e-007
analog_input_67: v(vin)=0.0414062 at 5.3e-007
output_code_68: v(dout)=0.015873 at 5.35e-007
analog_input_68: v(vin)=0.0417969 at 5.35e-007
output_code_69: v(dout)=0.015873 at 5.4e-007
analog_input_69: v(vin)=0.0421875 at 5.4e-007
output_code_70: v(dout)=0.015873 at 5.45e-007
analog_input_70: v(vin)=0.0425781 at 5.45e-007
output_code_71: v(dout)=0.015873 at 5.5e-007
analog_input_71: v(vin)=0.0429688 at 5.5e-007
output_code_72: v(dout)=0.015873 at 5.55e-007
analog_input_72: v(vin)=0.0433594 at 5.55e-007
output_code_73: v(dout)=0.015873 at 5.6e-007
analog_input_73: v(vin)=0.04375 at 5.6e-007
output_code_74: v(dout)=0.015873 at 5.65e-007
analog_input_74: v(vin)=0.0441406 at 5.65e-007
output_code_75: v(dout)=0.015873 at 5.7e-007
analog_input_75: v(vin)=0.0445313 at 5.7e-007
output_code_76: v(dout)=0.015873 at 5.75e-007
analog_input_76: v(vin)=0.0449219 at 5.75e-007
output_code_77: v(dout)=0.015873 at 5.8e-007
analog_input_77: v(vin)=0.0453125 at 5.8e-007
output_code_78: v(dout)=0.031746 at 5.85e-007
analog_input_78: v(vin)=0.0457031 at 5.85e-007
output_code_79: v(dout)=0.031746 at 5.9e-007
analog_input_79: v(vin)=0.0460938 at 5.9e-007
output_code_80: v(dout)=0.031746 at 5.95e-007
analog_input_80: v(vin)=0.0464844 at 5.95e-007
output_code_81: v(dout)=0.031746 at 6e-007
analog_input_81: v(vin)=0.046875 at 6e-007
output_code_82: v(dout)=0.031746 at 6.05e-007
analog_input_82: v(vin)=0.0472656 at 6.05e-007
output_code_83: v(dout)=0.031746 at 6.1e-007
analog_input_83: v(vin)=0.0476563 at 6.1e-007
output_code_84: v(dout)=0.031746 at 6.15e-007
analog_input_84: v(vin)=0.0480469 at 6.15e-007
output_code_85: v(dout)=0.031746 at 6.2e-007
analog_input_85: v(vin)=0.0484375 at 6.2e-007
output_code_86: v(dout)=0.031746 at 6.25e-007
analog_input_86: v(vin)=0.0488281 at 6.25e-007
output_code_87: v(dout)=0.031746 at 6.3e-007
analog_input_87: v(vin)=0.0492188 at 6.3e-007
output_code_88: v(dout)=0.031746 at 6.35e-007
analog_input_88: v(vin)=0.0496094 at 6.35e-007
output_code_89: v(dout)=0.031746 at 6.4e-007
analog_input_89: v(vin)=0.05 at 6.4e-007
output_code_90: v(dout)=0.031746 at 6.45e-007
analog_input_90: v(vin)=0.0503906 at 6.45e-007
output_code_91: v(dout)=0.031746 at 6.5e-007
analog_input_91: v(vin)=0.0507813 at 6.5e-007
output_code_92: v(dout)=0.031746 at 6.55e-007
analog_input_92: v(vin)=0.0511719 at 6.55e-007
output_code_93: v(dout)=0.031746 at 6.6e-007
analog_input_93: v(vin)=0.0515625 at 6.6e-007
output_code_94: v(dout)=0.031746 at 6.65e-007
analog_input_94: v(vin)=0.0519531 at 6.65e-007
output_code_95: v(dout)=0.031746 at 6.7e-007
analog_input_95: v(vin)=0.0523438 at 6.7e-007
output_code_96: v(dout)=0.031746 at 6.75e-007
analog_input_96: v(vin)=0.0527344 at 6.75e-007
output_code_97: v(dout)=0.031746 at 6.8e-007
analog_input_97: v(vin)=0.053125 at 6.8e-007
output_code_98: v(dout)=0.031746 at 6.85e-007
analog_input_98: v(vin)=0.0535156 at 6.85e-007
output_code_99: v(dout)=0.031746 at 6.9e-007
analog_input_99: v(vin)=0.0539063 at 6.9e-007
output_code_100: v(dout)=0.031746 at 6.95e-007
analog_input_100: v(vin)=0.0542969 at 6.95e-007
output_code_101: v(dout)=0.031746 at 7e-007
analog_input_101: v(vin)=0.0546875 at 7e-007
output_code_102: v(dout)=0.031746 at 7.05e-007
analog_input_102: v(vin)=0.0550781 at 7.05e-007
output_code_103: v(dout)=0.031746 at 7.1e-007
analog_input_103: v(vin)=0.0554688 at 7.1e-007
output_code_104: v(dout)=0.031746 at 7.15e-007
analog_input_104: v(vin)=0.0558594 at 7.15e-007
output_code_105: v(dout)=0.031746 at 7.2e-007
analog_input_105: v(vin)=0.05625 at 7.2e-007
output_code_106: v(dout)=0.031746 at 7.25e-007
analog_input_106: v(vin)=0.0566406 at 7.25e-007
output_code_107: v(dout)=0.031746 at 7.3e-007
analog_input_107: v(vin)=0.0570312 at 7.3e-007
output_code_108: v(dout)=0.031746 at 7.35e-007
analog_input_108: v(vin)=0.0574219 at 7.35e-007
output_code_109: v(dout)=0.031746 at 7.4e-007
analog_input_109: v(vin)=0.0578125 at 7.4e-007
output_code_110: v(dout)=0.031746 at 7.45e-007
analog_input_110: v(vin)=0.0582031 at 7.45e-007
output_code_111: v(dout)=0.031746 at 7.5e-007
analog_input_111: v(vin)=0.0585938 at 7.5e-007
output_code_112: v(dout)=0.031746 at 7.55e-007
analog_input_112: v(vin)=0.0589844 at 7.55e-007
output_code_113: v(dout)=0.031746 at 7.6e-007
analog_input_113: v(vin)=0.059375 at 7.6e-007
output_code_114: v(dout)=0.031746 at 7.65e-007
analog_input_114: v(vin)=0.0597656 at 7.65e-007
output_code_115: v(dout)=0.031746 at 7.7e-007
analog_input_115: v(vin)=0.0601563 at 7.7e-007
output_code_116: v(dout)=0.031746 at 7.75e-007
analog_input_116: v(vin)=0.0605469 at 7.75e-007
output_code_117: v(dout)=0.031746 at 7.8e-007
analog_input_117: v(vin)=0.0609375 at 7.8e-007
output_code_118: v(dout)=0.047619 at 7.85e-007
analog_input_118: v(vin)=0.0613281 at 7.85e-007
output_code_119: v(dout)=0.047619 at 7.9e-007
analog_input_119: v(vin)=0.0617188 at 7.9e-007
output_code_120: v(dout)=0.047619 at 7.95e-007
analog_input_120: v(vin)=0.0621094 at 7.95e-007
output_code_121: v(dout)=0.047619 at 8e-007
analog_input_121: v(vin)=0.0625 at 8e-007
output_code_122: v(dout)=0.047619 at 8.05e-007
analog_input_122: v(vin)=0.0628906 at 8.05e-007
output_code_123: v(dout)=0.047619 at 8.1e-007
analog_input_123: v(vin)=0.0632813 at 8.1e-007
output_code_124: v(dout)=0.047619 at 8.15e-007
analog_input_124: v(vin)=0.0636719 at 8.15e-007
output_code_125: v(dout)=0.047619 at 8.2e-007
analog_input_125: v(vin)=0.0640625 at 8.2e-007
output_code_126: v(dout)=0.047619 at 8.25e-007
analog_input_126: v(vin)=0.0644531 at 8.25e-007
output_code_127: v(dout)=0.047619 at 8.3e-007
analog_input_127: v(vin)=0.0648438 at 8.3e-007
output_code_128: v(dout)=0.047619 at 8.35e-007
analog_input_128: v(vin)=0.0652344 at 8.35e-007
output_code_129: v(dout)=0.047619 at 8.4e-007
analog_input_129: v(vin)=0.065625 at 8.4e-007
output_code_130: v(dout)=0.047619 at 8.45e-007
analog_input_130: v(vin)=0.0660156 at 8.45e-007
output_code_131: v(dout)=0.047619 at 8.5e-007
analog_input_131: v(vin)=0.0664063 at 8.5e-007
output_code_132: v(dout)=0.047619 at 8.55e-007
analog_input_132: v(vin)=0.0667969 at 8.55e-007
output_code_133: v(dout)=0.047619 at 8.6e-007
analog_input_133: v(vin)=0.0671875 at 8.6e-007
output_code_134: v(dout)=0.047619 at 8.65e-007
analog_input_134: v(vin)=0.0675781 at 8.65e-007
output_code_135: v(dout)=0.047619 at 8.7e-007
analog_input_135: v(vin)=0.0679688 at 8.7e-007
output_code_136: v(dout)=0.047619 at 8.75e-007
analog_input_136: v(vin)=0.0683594 at 8.75e-007
output_code_137: v(dout)=0.047619 at 8.8e-007
analog_input_137: v(vin)=0.06875 at 8.8e-007
output_code_138: v(dout)=0.047619 at 8.85e-007
analog_input_138: v(vin)=0.0691406 at 8.85e-007
output_code_139: v(dout)=0.047619 at 8.9e-007
analog_input_139: v(vin)=0.0695313 at 8.9e-007
output_code_140: v(dout)=0.047619 at 8.95e-007
analog_input_140: v(vin)=0.0699219 at 8.95e-007
output_code_141: v(dout)=0.047619 at 9e-007
analog_input_141: v(vin)=0.0703125 at 9e-007
output_code_142: v(dout)=0.047619 at 9.05e-007
analog_input_142: v(vin)=0.0707031 at 9.05e-007
output_code_143: v(dout)=0.047619 at 9.1e-007
analog_input_143: v(vin)=0.0710938 at 9.1e-007
output_code_144: v(dout)=0.047619 at 9.15e-007
analog_input_144: v(vin)=0.0714844 at 9.15e-007
output_code_145: v(dout)=0.047619 at 9.2e-007
analog_input_145: v(vin)=0.071875 at 9.2e-007
output_code_146: v(dout)=0.047619 at 9.25e-007
analog_input_146: v(vin)=0.0722656 at 9.25e-007
output_code_147: v(dout)=0.047619 at 9.3e-007
analog_input_147: v(vin)=0.0726563 at 9.3e-007
output_code_148: v(dout)=0.047619 at 9.35e-007
analog_input_148: v(vin)=0.0730469 at 9.35e-007
output_code_149: v(dout)=0.047619 at 9.4e-007
analog_input_149: v(vin)=0.0734375 at 9.4e-007
output_code_150: v(dout)=0.047619 at 9.45e-007
analog_input_150: v(vin)=0.0738281 at 9.45e-007
output_code_151: v(dout)=0.047619 at 9.5e-007
analog_input_151: v(vin)=0.0742188 at 9.5e-007
output_code_152: v(dout)=0.047619 at 9.55e-007
analog_input_152: v(vin)=0.0746094 at 9.55e-007
output_code_153: v(dout)=0.047619 at 9.6e-007
analog_input_153: v(vin)=0.075 at 9.6e-007
output_code_154: v(dout)=0.047619 at 9.65e-007
analog_input_154: v(vin)=0.0753906 at 9.65e-007
output_code_155: v(dout)=0.047619 at 9.7e-007
analog_input_155: v(vin)=0.0757813 at 9.7e-007
output_code_156: v(dout)=0.047619 at 9.75e-007
analog_input_156: v(vin)=0.0761719 at 9.75e-007
output_code_157: v(dout)=0.047619 at 9.8e-007
analog_input_157: v(vin)=0.0765625 at 9.8e-007
output_code_158: v(dout)=0.0634921 at 9.85e-007
analog_input_158: v(vin)=0.0769531 at 9.85e-007
output_code_159: v(dout)=0.0634921 at 9.9e-007
analog_input_159: v(vin)=0.0773438 at 9.9e-007
output_code_160: v(dout)=0.0634921 at 9.95e-007
analog_input_160: v(vin)=0.0777344 at 9.95e-007
output_code_161: v(dout)=0.0634921 at 1e-006
analog_input_161: v(vin)=0.078125 at 1e-006
output_code_162: v(dout)=0.0634921 at 1.005e-006
analog_input_162: v(vin)=0.0785156 at 1.005e-006
output_code_163: v(dout)=0.0634921 at 1.01e-006
analog_input_163: v(vin)=0.0789063 at 1.01e-006
output_code_164: v(dout)=0.0634921 at 1.015e-006
analog_input_164: v(vin)=0.0792969 at 1.015e-006
output_code_165: v(dout)=0.0634921 at 1.02e-006
analog_input_165: v(vin)=0.0796875 at 1.02e-006
output_code_166: v(dout)=0.0634921 at 1.025e-006
analog_input_166: v(vin)=0.0800781 at 1.025e-006
output_code_167: v(dout)=0.0634921 at 1.03e-006
analog_input_167: v(vin)=0.0804688 at 1.03e-006
output_code_168: v(dout)=0.0634921 at 1.035e-006
analog_input_168: v(vin)=0.0808594 at 1.035e-006
output_code_169: v(dout)=0.0634921 at 1.04e-006
analog_input_169: v(vin)=0.08125 at 1.04e-006
output_code_170: v(dout)=0.0634921 at 1.045e-006
analog_input_170: v(vin)=0.0816406 at 1.045e-006
output_code_171: v(dout)=0.0634921 at 1.05e-006
analog_input_171: v(vin)=0.0820313 at 1.05e-006
output_code_172: v(dout)=0.0634921 at 1.055e-006
analog_input_172: v(vin)=0.0824219 at 1.055e-006
output_code_173: v(dout)=0.0634921 at 1.06e-006
analog_input_173: v(vin)=0.0828125 at 1.06e-006
output_code_174: v(dout)=0.0634921 at 1.065e-006
analog_input_174: v(vin)=0.0832031 at 1.065e-006
output_code_175: v(dout)=0.0634921 at 1.07e-006
analog_input_175: v(vin)=0.0835938 at 1.07e-006
output_code_176: v(dout)=0.0634921 at 1.075e-006
analog_input_176: v(vin)=0.0839844 at 1.075e-006
output_code_177: v(dout)=0.0634921 at 1.08e-006
analog_input_177: v(vin)=0.084375 at 1.08e-006
output_code_178: v(dout)=0.0634921 at 1.085e-006
analog_input_178: v(vin)=0.0847656 at 1.085e-006
output_code_179: v(dout)=0.0634921 at 1.09e-006
analog_input_179: v(vin)=0.0851563 at 1.09e-006
output_code_180: v(dout)=0.0634921 at 1.095e-006
analog_input_180: v(vin)=0.0855469 at 1.095e-006
output_code_181: v(dout)=0.0634921 at 1.1e-006
analog_input_181: v(vin)=0.0859375 at 1.1e-006
output_code_182: v(dout)=0.0634921 at 1.105e-006
analog_input_182: v(vin)=0.0863281 at 1.105e-006
output_code_183: v(dout)=0.0634921 at 1.11e-006
analog_input_183: v(vin)=0.0867188 at 1.11e-006
output_code_184: v(dout)=0.0634921 at 1.115e-006
analog_input_184: v(vin)=0.0871094 at 1.115e-006
output_code_185: v(dout)=0.0634921 at 1.12e-006
analog_input_185: v(vin)=0.0875 at 1.12e-006
output_code_186: v(dout)=0.0634921 at 1.125e-006
analog_input_186: v(vin)=0.0878906 at 1.125e-006
output_code_187: v(dout)=0.0634921 at 1.13e-006
analog_input_187: v(vin)=0.0882813 at 1.13e-006
output_code_188: v(dout)=0.0634921 at 1.135e-006
analog_input_188: v(vin)=0.0886719 at 1.135e-006
output_code_189: v(dout)=0.0634921 at 1.14e-006
analog_input_189: v(vin)=0.0890625 at 1.14e-006
output_code_190: v(dout)=0.0634921 at 1.145e-006
analog_input_190: v(vin)=0.0894531 at 1.145e-006
output_code_191: v(dout)=0.0634921 at 1.15e-006
analog_input_191: v(vin)=0.0898438 at 1.15e-006
output_code_192: v(dout)=0.0634921 at 1.155e-006
analog_input_192: v(vin)=0.0902344 at 1.155e-006
output_code_193: v(dout)=0.0634921 at 1.16e-006
analog_input_193: v(vin)=0.090625 at 1.16e-006
output_code_194: v(dout)=0.0634921 at 1.165e-006
analog_input_194: v(vin)=0.0910156 at 1.165e-006
output_code_195: v(dout)=0.0634921 at 1.17e-006
analog_input_195: v(vin)=0.0914062 at 1.17e-006
output_code_196: v(dout)=0.0634921 at 1.175e-006
analog_input_196: v(vin)=0.0917969 at 1.175e-006
output_code_197: v(dout)=0.0634921 at 1.18e-006
analog_input_197: v(vin)=0.0921875 at 1.18e-006
output_code_198: v(dout)=0.0793651 at 1.185e-006
analog_input_198: v(vin)=0.0925781 at 1.185e-006
output_code_199: v(dout)=0.0793651 at 1.19e-006
analog_input_199: v(vin)=0.0929688 at 1.19e-006
output_code_200: v(dout)=0.0793651 at 1.195e-006
analog_input_200: v(vin)=0.0933594 at 1.195e-006
output_code_201: v(dout)=0.0793651 at 1.2e-006
analog_input_201: v(vin)=0.09375 at 1.2e-006
output_code_202: v(dout)=0.0793651 at 1.205e-006
analog_input_202: v(vin)=0.0941406 at 1.205e-006
output_code_203: v(dout)=0.0793651 at 1.21e-006
analog_input_203: v(vin)=0.0945312 at 1.21e-006
output_code_204: v(dout)=0.0793651 at 1.215e-006
analog_input_204: v(vin)=0.0949219 at 1.215e-006
output_code_205: v(dout)=0.0793651 at 1.22e-006
analog_input_205: v(vin)=0.0953125 at 1.22e-006
output_code_206: v(dout)=0.0793651 at 1.225e-006
analog_input_206: v(vin)=0.0957031 at 1.225e-006
output_code_207: v(dout)=0.0793651 at 1.23e-006
analog_input_207: v(vin)=0.0960938 at 1.23e-006
output_code_208: v(dout)=0.0793651 at 1.235e-006
analog_input_208: v(vin)=0.0964844 at 1.235e-006
output_code_209: v(dout)=0.0793651 at 1.24e-006
analog_input_209: v(vin)=0.096875 at 1.24e-006
output_code_210: v(dout)=0.0793651 at 1.245e-006
analog_input_210: v(vin)=0.0972656 at 1.245e-006
output_code_211: v(dout)=0.0793651 at 1.25e-006
analog_input_211: v(vin)=0.0976563 at 1.25e-006
output_code_212: v(dout)=0.0793651 at 1.255e-006
analog_input_212: v(vin)=0.0980469 at 1.255e-006
output_code_213: v(dout)=0.0793651 at 1.26e-006
analog_input_213: v(vin)=0.0984375 at 1.26e-006
output_code_214: v(dout)=0.0793651 at 1.265e-006
analog_input_214: v(vin)=0.0988281 at 1.265e-006
output_code_215: v(dout)=0.0793651 at 1.27e-006
analog_input_215: v(vin)=0.0992188 at 1.27e-006
output_code_216: v(dout)=0.0793651 at 1.275e-006
analog_input_216: v(vin)=0.0996094 at 1.275e-006
output_code_217: v(dout)=0.0793651 at 1.28e-006
analog_input_217: v(vin)=0.1 at 1.28e-006
output_code_218: v(dout)=0.0793651 at 1.285e-006
analog_input_218: v(vin)=0.100391 at 1.285e-006
output_code_219: v(dout)=0.0793651 at 1.29e-006
analog_input_219: v(vin)=0.100781 at 1.29e-006
output_code_220: v(dout)=0.0793651 at 1.295e-006
analog_input_220: v(vin)=0.101172 at 1.295e-006
output_code_221: v(dout)=0.0793651 at 1.3e-006
analog_input_221: v(vin)=0.101563 at 1.3e-006
output_code_222: v(dout)=0.0793651 at 1.305e-006
analog_input_222: v(vin)=0.101953 at 1.305e-006
output_code_223: v(dout)=0.0793651 at 1.31e-006
analog_input_223: v(vin)=0.102344 at 1.31e-006
output_code_224: v(dout)=0.0793651 at 1.315e-006
analog_input_224: v(vin)=0.102734 at 1.315e-006
output_code_225: v(dout)=0.0793651 at 1.32e-006
analog_input_225: v(vin)=0.103125 at 1.32e-006
output_code_226: v(dout)=0.0793651 at 1.325e-006
analog_input_226: v(vin)=0.103516 at 1.325e-006
output_code_227: v(dout)=0.0793651 at 1.33e-006
analog_input_227: v(vin)=0.103906 at 1.33e-006
output_code_228: v(dout)=0.0793651 at 1.335e-006
analog_input_228: v(vin)=0.104297 at 1.335e-006
output_code_229: v(dout)=0.0793651 at 1.34e-006
analog_input_229: v(vin)=0.104688 at 1.34e-006
output_code_230: v(dout)=0.0793651 at 1.345e-006
analog_input_230: v(vin)=0.105078 at 1.345e-006
output_code_231: v(dout)=0.0793651 at 1.35e-006
analog_input_231: v(vin)=0.105469 at 1.35e-006
output_code_232: v(dout)=0.0793651 at 1.355e-006
analog_input_232: v(vin)=0.105859 at 1.355e-006
output_code_233: v(dout)=0.0793651 at 1.36e-006
analog_input_233: v(vin)=0.10625 at 1.36e-006
output_code_234: v(dout)=0.0793651 at 1.365e-006
analog_input_234: v(vin)=0.106641 at 1.365e-006
output_code_235: v(dout)=0.0793651 at 1.37e-006
analog_input_235: v(vin)=0.107031 at 1.37e-006
output_code_236: v(dout)=0.0793651 at 1.375e-006
analog_input_236: v(vin)=0.107422 at 1.375e-006
output_code_237: v(dout)=0.0793651 at 1.38e-006
analog_input_237: v(vin)=0.107813 at 1.38e-006
output_code_238: v(dout)=0.0952381 at 1.385e-006
analog_input_238: v(vin)=0.108203 at 1.385e-006
output_code_239: v(dout)=0.0952381 at 1.39e-006
analog_input_239: v(vin)=0.108594 at 1.39e-006
output_code_240: v(dout)=0.0952381 at 1.395e-006
analog_input_240: v(vin)=0.108984 at 1.395e-006
output_code_241: v(dout)=0.0952381 at 1.4e-006
analog_input_241: v(vin)=0.109375 at 1.4e-006
output_code_242: v(dout)=0.0952381 at 1.405e-006
analog_input_242: v(vin)=0.109766 at 1.405e-006
output_code_243: v(dout)=0.0952381 at 1.41e-006
analog_input_243: v(vin)=0.110156 at 1.41e-006
output_code_244: v(dout)=0.0952381 at 1.415e-006
analog_input_244: v(vin)=0.110547 at 1.415e-006
output_code_245: v(dout)=0.0952381 at 1.42e-006
analog_input_245: v(vin)=0.110938 at 1.42e-006
output_code_246: v(dout)=0.0952381 at 1.425e-006
analog_input_246: v(vin)=0.111328 at 1.425e-006
output_code_247: v(dout)=0.0952381 at 1.43e-006
analog_input_247: v(vin)=0.111719 at 1.43e-006
output_code_248: v(dout)=0.0952381 at 1.435e-006
analog_input_248: v(vin)=0.112109 at 1.435e-006
output_code_249: v(dout)=0.0952381 at 1.44e-006
analog_input_249: v(vin)=0.1125 at 1.44e-006
output_code_250: v(dout)=0.0952381 at 1.445e-006
analog_input_250: v(vin)=0.112891 at 1.445e-006
output_code_251: v(dout)=0.0952381 at 1.45e-006
analog_input_251: v(vin)=0.113281 at 1.45e-006
output_code_252: v(dout)=0.0952381 at 1.455e-006
analog_input_252: v(vin)=0.113672 at 1.455e-006
output_code_253: v(dout)=0.0952381 at 1.46e-006
analog_input_253: v(vin)=0.114063 at 1.46e-006
output_code_254: v(dout)=0.0952381 at 1.465e-006
analog_input_254: v(vin)=0.114453 at 1.465e-006
output_code_255: v(dout)=0.0952381 at 1.47e-006
analog_input_255: v(vin)=0.114844 at 1.47e-006
output_code_256: v(dout)=0.0952381 at 1.475e-006
analog_input_256: v(vin)=0.115234 at 1.475e-006
output_code_257: v(dout)=0.0952381 at 1.48e-006
analog_input_257: v(vin)=0.115625 at 1.48e-006
output_code_258: v(dout)=0.0952381 at 1.485e-006
analog_input_258: v(vin)=0.116016 at 1.485e-006
output_code_259: v(dout)=0.0952381 at 1.49e-006
analog_input_259: v(vin)=0.116406 at 1.49e-006
output_code_260: v(dout)=0.0952381 at 1.495e-006
analog_input_260: v(vin)=0.116797 at 1.495e-006
output_code_261: v(dout)=0.0952381 at 1.5e-006
analog_input_261: v(vin)=0.117188 at 1.5e-006
output_code_262: v(dout)=0.0952381 at 1.505e-006
analog_input_262: v(vin)=0.117578 at 1.505e-006
output_code_263: v(dout)=0.0952381 at 1.51e-006
analog_input_263: v(vin)=0.117969 at 1.51e-006
output_code_264: v(dout)=0.0952381 at 1.515e-006
analog_input_264: v(vin)=0.118359 at 1.515e-006
output_code_265: v(dout)=0.0952381 at 1.52e-006
analog_input_265: v(vin)=0.11875 at 1.52e-006
output_code_266: v(dout)=0.0952381 at 1.525e-006
analog_input_266: v(vin)=0.119141 at 1.525e-006
output_code_267: v(dout)=0.0952381 at 1.53e-006
analog_input_267: v(vin)=0.119531 at 1.53e-006
output_code_268: v(dout)=0.0952381 at 1.535e-006
analog_input_268: v(vin)=0.119922 at 1.535e-006
output_code_269: v(dout)=0.0952381 at 1.54e-006
analog_input_269: v(vin)=0.120313 at 1.54e-006
output_code_270: v(dout)=0.0952381 at 1.545e-006
analog_input_270: v(vin)=0.120703 at 1.545e-006
output_code_271: v(dout)=0.0952381 at 1.55e-006
analog_input_271: v(vin)=0.121094 at 1.55e-006
output_code_272: v(dout)=0.0952381 at 1.555e-006
analog_input_272: v(vin)=0.121484 at 1.555e-006
output_code_273: v(dout)=0.0952381 at 1.56e-006
analog_input_273: v(vin)=0.121875 at 1.56e-006
output_code_274: v(dout)=0.0952381 at 1.565e-006
analog_input_274: v(vin)=0.122266 at 1.565e-006
output_code_275: v(dout)=0.0952381 at 1.57e-006
analog_input_275: v(vin)=0.122656 at 1.57e-006
output_code_276: v(dout)=0.0952381 at 1.575e-006
analog_input_276: v(vin)=0.123047 at 1.575e-006
output_code_277: v(dout)=0.0952381 at 1.58e-006
analog_input_277: v(vin)=0.123438 at 1.58e-006
output_code_278: v(dout)=0.111111 at 1.585e-006
analog_input_278: v(vin)=0.123828 at 1.585e-006
output_code_279: v(dout)=0.111111 at 1.59e-006
analog_input_279: v(vin)=0.124219 at 1.59e-006
output_code_280: v(dout)=0.111111 at 1.595e-006
analog_input_280: v(vin)=0.124609 at 1.595e-006
output_code_281: v(dout)=0.111111 at 1.6e-006
analog_input_281: v(vin)=0.125 at 1.6e-006
output_code_282: v(dout)=0.111111 at 1.605e-006
analog_input_282: v(vin)=0.125391 at 1.605e-006
output_code_283: v(dout)=0.111111 at 1.61e-006
analog_input_283: v(vin)=0.125781 at 1.61e-006
output_code_284: v(dout)=0.111111 at 1.615e-006
analog_input_284: v(vin)=0.126172 at 1.615e-006
output_code_285: v(dout)=0.111111 at 1.62e-006
analog_input_285: v(vin)=0.126563 at 1.62e-006
output_code_286: v(dout)=0.111111 at 1.625e-006
analog_input_286: v(vin)=0.126953 at 1.625e-006
output_code_287: v(dout)=0.111111 at 1.63e-006
analog_input_287: v(vin)=0.127344 at 1.63e-006
output_code_288: v(dout)=0.111111 at 1.635e-006
analog_input_288: v(vin)=0.127734 at 1.635e-006
output_code_289: v(dout)=0.111111 at 1.64e-006
analog_input_289: v(vin)=0.128125 at 1.64e-006
output_code_290: v(dout)=0.111111 at 1.645e-006
analog_input_290: v(vin)=0.128516 at 1.645e-006
output_code_291: v(dout)=0.111111 at 1.65e-006
analog_input_291: v(vin)=0.128906 at 1.65e-006
output_code_292: v(dout)=0.111111 at 1.655e-006
analog_input_292: v(vin)=0.129297 at 1.655e-006
output_code_293: v(dout)=0.111111 at 1.66e-006
analog_input_293: v(vin)=0.129688 at 1.66e-006
output_code_294: v(dout)=0.111111 at 1.665e-006
analog_input_294: v(vin)=0.130078 at 1.665e-006
output_code_295: v(dout)=0.111111 at 1.67e-006
analog_input_295: v(vin)=0.130469 at 1.67e-006
output_code_296: v(dout)=0.111111 at 1.675e-006
analog_input_296: v(vin)=0.130859 at 1.675e-006
output_code_297: v(dout)=0.111111 at 1.68e-006
analog_input_297: v(vin)=0.13125 at 1.68e-006
output_code_298: v(dout)=0.111111 at 1.685e-006
analog_input_298: v(vin)=0.131641 at 1.685e-006
output_code_299: v(dout)=0.111111 at 1.69e-006
analog_input_299: v(vin)=0.132031 at 1.69e-006
output_code_300: v(dout)=0.111111 at 1.695e-006
analog_input_300: v(vin)=0.132422 at 1.695e-006
output_code_301: v(dout)=0.111111 at 1.7e-006
analog_input_301: v(vin)=0.132813 at 1.7e-006
output_code_302: v(dout)=0.111111 at 1.705e-006
analog_input_302: v(vin)=0.133203 at 1.705e-006
output_code_303: v(dout)=0.111111 at 1.71e-006
analog_input_303: v(vin)=0.133594 at 1.71e-006
output_code_304: v(dout)=0.111111 at 1.715e-006
analog_input_304: v(vin)=0.133984 at 1.715e-006
output_code_305: v(dout)=0.111111 at 1.72e-006
analog_input_305: v(vin)=0.134375 at 1.72e-006
output_code_306: v(dout)=0.111111 at 1.725e-006
analog_input_306: v(vin)=0.134766 at 1.725e-006
output_code_307: v(dout)=0.111111 at 1.73e-006
analog_input_307: v(vin)=0.135156 at 1.73e-006
output_code_308: v(dout)=0.111111 at 1.735e-006
analog_input_308: v(vin)=0.135547 at 1.735e-006
output_code_309: v(dout)=0.111111 at 1.74e-006
analog_input_309: v(vin)=0.135938 at 1.74e-006
output_code_310: v(dout)=0.111111 at 1.745e-006
analog_input_310: v(vin)=0.136328 at 1.745e-006
output_code_311: v(dout)=0.111111 at 1.75e-006
analog_input_311: v(vin)=0.136719 at 1.75e-006
output_code_312: v(dout)=0.111111 at 1.755e-006
analog_input_312: v(vin)=0.137109 at 1.755e-006
output_code_313: v(dout)=0.111111 at 1.76e-006
analog_input_313: v(vin)=0.1375 at 1.76e-006
output_code_314: v(dout)=0.111111 at 1.765e-006
analog_input_314: v(vin)=0.137891 at 1.765e-006
output_code_315: v(dout)=0.111111 at 1.77e-006
analog_input_315: v(vin)=0.138281 at 1.77e-006
output_code_316: v(dout)=0.111111 at 1.775e-006
analog_input_316: v(vin)=0.138672 at 1.775e-006
output_code_317: v(dout)=0.111111 at 1.78e-006
analog_input_317: v(vin)=0.139063 at 1.78e-006
output_code_318: v(dout)=0.126984 at 1.785e-006
analog_input_318: v(vin)=0.139453 at 1.785e-006
output_code_319: v(dout)=0.126984 at 1.79e-006
analog_input_319: v(vin)=0.139844 at 1.79e-006
output_code_320: v(dout)=0.126984 at 1.795e-006
analog_input_320: v(vin)=0.140234 at 1.795e-006
output_code_321: v(dout)=0.126984 at 1.8e-006
analog_input_321: v(vin)=0.140625 at 1.8e-006
output_code_322: v(dout)=0.126984 at 1.805e-006
analog_input_322: v(vin)=0.141016 at 1.805e-006
output_code_323: v(dout)=0.126984 at 1.81e-006
analog_input_323: v(vin)=0.141406 at 1.81e-006
output_code_324: v(dout)=0.126984 at 1.815e-006
analog_input_324: v(vin)=0.141797 at 1.815e-006
output_code_325: v(dout)=0.126984 at 1.82e-006
analog_input_325: v(vin)=0.142188 at 1.82e-006
output_code_326: v(dout)=0.126984 at 1.825e-006
analog_input_326: v(vin)=0.142578 at 1.825e-006
output_code_327: v(dout)=0.126984 at 1.83e-006
analog_input_327: v(vin)=0.142969 at 1.83e-006
output_code_328: v(dout)=0.126984 at 1.835e-006
analog_input_328: v(vin)=0.143359 at 1.835e-006
output_code_329: v(dout)=0.126984 at 1.84e-006
analog_input_329: v(vin)=0.14375 at 1.84e-006
output_code_330: v(dout)=0.126984 at 1.845e-006
analog_input_330: v(vin)=0.144141 at 1.845e-006
output_code_331: v(dout)=0.126984 at 1.85e-006
analog_input_331: v(vin)=0.144531 at 1.85e-006
output_code_332: v(dout)=0.126984 at 1.855e-006
analog_input_332: v(vin)=0.144922 at 1.855e-006
output_code_333: v(dout)=0.126984 at 1.86e-006
analog_input_333: v(vin)=0.145313 at 1.86e-006
output_code_334: v(dout)=0.126984 at 1.865e-006
analog_input_334: v(vin)=0.145703 at 1.865e-006
output_code_335: v(dout)=0.126984 at 1.87e-006
analog_input_335: v(vin)=0.146094 at 1.87e-006
output_code_336: v(dout)=0.126984 at 1.875e-006
analog_input_336: v(vin)=0.146484 at 1.875e-006
output_code_337: v(dout)=0.126984 at 1.88e-006
analog_input_337: v(vin)=0.146875 at 1.88e-006
output_code_338: v(dout)=0.126984 at 1.885e-006
analog_input_338: v(vin)=0.147266 at 1.885e-006
output_code_339: v(dout)=0.126984 at 1.89e-006
analog_input_339: v(vin)=0.147656 at 1.89e-006
output_code_340: v(dout)=0.126984 at 1.895e-006
analog_input_340: v(vin)=0.148047 at 1.895e-006
output_code_341: v(dout)=0.126984 at 1.9e-006
analog_input_341: v(vin)=0.148438 at 1.9e-006
output_code_342: v(dout)=0.126984 at 1.905e-006
analog_input_342: v(vin)=0.148828 at 1.905e-006
output_code_343: v(dout)=0.126984 at 1.91e-006
analog_input_343: v(vin)=0.149219 at 1.91e-006
output_code_344: v(dout)=0.126984 at 1.915e-006
analog_input_344: v(vin)=0.149609 at 1.915e-006
output_code_345: v(dout)=0.126984 at 1.92e-006
analog_input_345: v(vin)=0.15 at 1.92e-006
output_code_346: v(dout)=0.126984 at 1.925e-006
analog_input_346: v(vin)=0.150391 at 1.925e-006
output_code_347: v(dout)=0.126984 at 1.93e-006
analog_input_347: v(vin)=0.150781 at 1.93e-006
output_code_348: v(dout)=0.126984 at 1.935e-006
analog_input_348: v(vin)=0.151172 at 1.935e-006
output_code_349: v(dout)=0.126984 at 1.94e-006
analog_input_349: v(vin)=0.151563 at 1.94e-006
output_code_350: v(dout)=0.126984 at 1.945e-006
analog_input_350: v(vin)=0.151953 at 1.945e-006
output_code_351: v(dout)=0.126984 at 1.95e-006
analog_input_351: v(vin)=0.152344 at 1.95e-006
output_code_352: v(dout)=0.126984 at 1.955e-006
analog_input_352: v(vin)=0.152734 at 1.955e-006
output_code_353: v(dout)=0.126984 at 1.96e-006
analog_input_353: v(vin)=0.153125 at 1.96e-006
output_code_354: v(dout)=0.126984 at 1.965e-006
analog_input_354: v(vin)=0.153516 at 1.965e-006
output_code_355: v(dout)=0.126984 at 1.97e-006
analog_input_355: v(vin)=0.153906 at 1.97e-006
output_code_356: v(dout)=0.126984 at 1.975e-006
analog_input_356: v(vin)=0.154297 at 1.975e-006
output_code_357: v(dout)=0.126984 at 1.98e-006
analog_input_357: v(vin)=0.154688 at 1.98e-006
output_code_358: v(dout)=0.142857 at 1.985e-006
analog_input_358: v(vin)=0.155078 at 1.985e-006
output_code_359: v(dout)=0.142857 at 1.99e-006
analog_input_359: v(vin)=0.155469 at 1.99e-006
output_code_360: v(dout)=0.142857 at 1.995e-006
analog_input_360: v(vin)=0.155859 at 1.995e-006
output_code_361: v(dout)=0.142857 at 2e-006
analog_input_361: v(vin)=0.15625 at 2e-006
output_code_362: v(dout)=0.142857 at 2.005e-006
analog_input_362: v(vin)=0.156641 at 2.005e-006
output_code_363: v(dout)=0.142857 at 2.01e-006
analog_input_363: v(vin)=0.157031 at 2.01e-006
output_code_364: v(dout)=0.142857 at 2.015e-006
analog_input_364: v(vin)=0.157422 at 2.015e-006
output_code_365: v(dout)=0.142857 at 2.02e-006
analog_input_365: v(vin)=0.157813 at 2.02e-006
output_code_366: v(dout)=0.142857 at 2.025e-006
analog_input_366: v(vin)=0.158203 at 2.025e-006
output_code_367: v(dout)=0.142857 at 2.03e-006
analog_input_367: v(vin)=0.158594 at 2.03e-006
output_code_368: v(dout)=0.142857 at 2.035e-006
analog_input_368: v(vin)=0.158984 at 2.035e-006
output_code_369: v(dout)=0.142857 at 2.04e-006
analog_input_369: v(vin)=0.159375 at 2.04e-006
output_code_370: v(dout)=0.142857 at 2.045e-006
analog_input_370: v(vin)=0.159766 at 2.045e-006
output_code_371: v(dout)=0.142857 at 2.05e-006
analog_input_371: v(vin)=0.160156 at 2.05e-006
output_code_372: v(dout)=0.142857 at 2.055e-006
analog_input_372: v(vin)=0.160547 at 2.055e-006
output_code_373: v(dout)=0.142857 at 2.06e-006
analog_input_373: v(vin)=0.160938 at 2.06e-006
output_code_374: v(dout)=0.142857 at 2.065e-006
analog_input_374: v(vin)=0.161328 at 2.065e-006
output_code_375: v(dout)=0.142857 at 2.07e-006
analog_input_375: v(vin)=0.161719 at 2.07e-006
output_code_376: v(dout)=0.142857 at 2.075e-006
analog_input_376: v(vin)=0.162109 at 2.075e-006
output_code_377: v(dout)=0.142857 at 2.08e-006
analog_input_377: v(vin)=0.1625 at 2.08e-006
output_code_378: v(dout)=0.142857 at 2.085e-006
analog_input_378: v(vin)=0.162891 at 2.085e-006
output_code_379: v(dout)=0.142857 at 2.09e-006
analog_input_379: v(vin)=0.163281 at 2.09e-006
output_code_380: v(dout)=0.142857 at 2.095e-006
analog_input_380: v(vin)=0.163672 at 2.095e-006
output_code_381: v(dout)=0.142857 at 2.1e-006
analog_input_381: v(vin)=0.164063 at 2.1e-006
output_code_382: v(dout)=0.142857 at 2.105e-006
analog_input_382: v(vin)=0.164453 at 2.105e-006
output_code_383: v(dout)=0.142857 at 2.11e-006
analog_input_383: v(vin)=0.164844 at 2.11e-006
output_code_384: v(dout)=0.142857 at 2.115e-006
analog_input_384: v(vin)=0.165234 at 2.115e-006
output_code_385: v(dout)=0.142857 at 2.12e-006
analog_input_385: v(vin)=0.165625 at 2.12e-006
output_code_386: v(dout)=0.142857 at 2.125e-006
analog_input_386: v(vin)=0.166016 at 2.125e-006
output_code_387: v(dout)=0.142857 at 2.13e-006
analog_input_387: v(vin)=0.166406 at 2.13e-006
output_code_388: v(dout)=0.142857 at 2.135e-006
analog_input_388: v(vin)=0.166797 at 2.135e-006
output_code_389: v(dout)=0.142857 at 2.14e-006
analog_input_389: v(vin)=0.167188 at 2.14e-006
output_code_390: v(dout)=0.142857 at 2.145e-006
analog_input_390: v(vin)=0.167578 at 2.145e-006
output_code_391: v(dout)=0.142857 at 2.15e-006
analog_input_391: v(vin)=0.167969 at 2.15e-006
output_code_392: v(dout)=0.142857 at 2.155e-006
analog_input_392: v(vin)=0.168359 at 2.155e-006
output_code_393: v(dout)=0.142857 at 2.16e-006
analog_input_393: v(vin)=0.16875 at 2.16e-006
output_code_394: v(dout)=0.142857 at 2.165e-006
analog_input_394: v(vin)=0.169141 at 2.165e-006
output_code_395: v(dout)=0.142857 at 2.17e-006
analog_input_395: v(vin)=0.169531 at 2.17e-006
output_code_396: v(dout)=0.142857 at 2.175e-006
analog_input_396: v(vin)=0.169922 at 2.175e-006
output_code_397: v(dout)=0.142857 at 2.18e-006
analog_input_397: v(vin)=0.170313 at 2.18e-006
output_code_398: v(dout)=0.15873 at 2.185e-006
analog_input_398: v(vin)=0.170703 at 2.185e-006
output_code_399: v(dout)=0.15873 at 2.19e-006
analog_input_399: v(vin)=0.171094 at 2.19e-006
output_code_400: v(dout)=0.15873 at 2.195e-006
analog_input_400: v(vin)=0.171484 at 2.195e-006
output_code_401: v(dout)=0.15873 at 2.2e-006
analog_input_401: v(vin)=0.171875 at 2.2e-006
output_code_402: v(dout)=0.15873 at 2.205e-006
analog_input_402: v(vin)=0.172266 at 2.205e-006
output_code_403: v(dout)=0.15873 at 2.21e-006
analog_input_403: v(vin)=0.172656 at 2.21e-006
output_code_404: v(dout)=0.15873 at 2.215e-006
analog_input_404: v(vin)=0.173047 at 2.215e-006
output_code_405: v(dout)=0.15873 at 2.22e-006
analog_input_405: v(vin)=0.173438 at 2.22e-006
output_code_406: v(dout)=0.15873 at 2.225e-006
analog_input_406: v(vin)=0.173828 at 2.225e-006
output_code_407: v(dout)=0.15873 at 2.23e-006
analog_input_407: v(vin)=0.174219 at 2.23e-006
output_code_408: v(dout)=0.15873 at 2.235e-006
analog_input_408: v(vin)=0.174609 at 2.235e-006
output_code_409: v(dout)=0.15873 at 2.24e-006
analog_input_409: v(vin)=0.175 at 2.24e-006
output_code_410: v(dout)=0.15873 at 2.245e-006
analog_input_410: v(vin)=0.175391 at 2.245e-006
output_code_411: v(dout)=0.15873 at 2.25e-006
analog_input_411: v(vin)=0.175781 at 2.25e-006
output_code_412: v(dout)=0.15873 at 2.255e-006
analog_input_412: v(vin)=0.176172 at 2.255e-006
output_code_413: v(dout)=0.15873 at 2.26e-006
analog_input_413: v(vin)=0.176563 at 2.26e-006
output_code_414: v(dout)=0.15873 at 2.265e-006
analog_input_414: v(vin)=0.176953 at 2.265e-006
output_code_415: v(dout)=0.15873 at 2.27e-006
analog_input_415: v(vin)=0.177344 at 2.27e-006
output_code_416: v(dout)=0.15873 at 2.275e-006
analog_input_416: v(vin)=0.177734 at 2.275e-006
output_code_417: v(dout)=0.15873 at 2.28e-006
analog_input_417: v(vin)=0.178125 at 2.28e-006
output_code_418: v(dout)=0.15873 at 2.285e-006
analog_input_418: v(vin)=0.178516 at 2.285e-006
output_code_419: v(dout)=0.15873 at 2.29e-006
analog_input_419: v(vin)=0.178906 at 2.29e-006
output_code_420: v(dout)=0.15873 at 2.295e-006
analog_input_420: v(vin)=0.179297 at 2.295e-006
output_code_421: v(dout)=0.15873 at 2.3e-006
analog_input_421: v(vin)=0.179688 at 2.3e-006
output_code_422: v(dout)=0.15873 at 2.305e-006
analog_input_422: v(vin)=0.180078 at 2.305e-006
output_code_423: v(dout)=0.15873 at 2.31e-006
analog_input_423: v(vin)=0.180469 at 2.31e-006
output_code_424: v(dout)=0.15873 at 2.315e-006
analog_input_424: v(vin)=0.180859 at 2.315e-006
output_code_425: v(dout)=0.15873 at 2.32e-006
analog_input_425: v(vin)=0.18125 at 2.32e-006
output_code_426: v(dout)=0.15873 at 2.325e-006
analog_input_426: v(vin)=0.181641 at 2.325e-006
output_code_427: v(dout)=0.15873 at 2.33e-006
analog_input_427: v(vin)=0.182031 at 2.33e-006
output_code_428: v(dout)=0.15873 at 2.335e-006
analog_input_428: v(vin)=0.182422 at 2.335e-006
output_code_429: v(dout)=0.15873 at 2.34e-006
analog_input_429: v(vin)=0.182813 at 2.34e-006
output_code_430: v(dout)=0.15873 at 2.345e-006
analog_input_430: v(vin)=0.183203 at 2.345e-006
output_code_431: v(dout)=0.15873 at 2.35e-006
analog_input_431: v(vin)=0.183594 at 2.35e-006
output_code_432: v(dout)=0.15873 at 2.355e-006
analog_input_432: v(vin)=0.183984 at 2.355e-006
output_code_433: v(dout)=0.15873 at 2.36e-006
analog_input_433: v(vin)=0.184375 at 2.36e-006
output_code_434: v(dout)=0.15873 at 2.365e-006
analog_input_434: v(vin)=0.184766 at 2.365e-006
output_code_435: v(dout)=0.15873 at 2.37e-006
analog_input_435: v(vin)=0.185156 at 2.37e-006
output_code_436: v(dout)=0.15873 at 2.375e-006
analog_input_436: v(vin)=0.185547 at 2.375e-006
output_code_437: v(dout)=0.15873 at 2.38e-006
analog_input_437: v(vin)=0.185938 at 2.38e-006
output_code_438: v(dout)=0.174603 at 2.385e-006
analog_input_438: v(vin)=0.186328 at 2.385e-006
output_code_439: v(dout)=0.174603 at 2.39e-006
analog_input_439: v(vin)=0.186719 at 2.39e-006
output_code_440: v(dout)=0.174603 at 2.395e-006
analog_input_440: v(vin)=0.187109 at 2.395e-006
output_code_441: v(dout)=0.174603 at 2.4e-006
analog_input_441: v(vin)=0.1875 at 2.4e-006
output_code_442: v(dout)=0.174603 at 2.405e-006
analog_input_442: v(vin)=0.187891 at 2.405e-006
output_code_443: v(dout)=0.174603 at 2.41e-006
analog_input_443: v(vin)=0.188281 at 2.41e-006
output_code_444: v(dout)=0.174603 at 2.415e-006
analog_input_444: v(vin)=0.188672 at 2.415e-006
output_code_445: v(dout)=0.174603 at 2.42e-006
analog_input_445: v(vin)=0.189063 at 2.42e-006
output_code_446: v(dout)=0.174603 at 2.425e-006
analog_input_446: v(vin)=0.189453 at 2.425e-006
output_code_447: v(dout)=0.174603 at 2.43e-006
analog_input_447: v(vin)=0.189844 at 2.43e-006
output_code_448: v(dout)=0.174603 at 2.435e-006
analog_input_448: v(vin)=0.190234 at 2.435e-006
output_code_449: v(dout)=0.174603 at 2.44e-006
analog_input_449: v(vin)=0.190625 at 2.44e-006
output_code_450: v(dout)=0.174603 at 2.445e-006
analog_input_450: v(vin)=0.191016 at 2.445e-006
output_code_451: v(dout)=0.174603 at 2.45e-006
analog_input_451: v(vin)=0.191406 at 2.45e-006
output_code_452: v(dout)=0.174603 at 2.455e-006
analog_input_452: v(vin)=0.191797 at 2.455e-006
output_code_453: v(dout)=0.174603 at 2.46e-006
analog_input_453: v(vin)=0.192188 at 2.46e-006
output_code_454: v(dout)=0.174603 at 2.465e-006
analog_input_454: v(vin)=0.192578 at 2.465e-006
output_code_455: v(dout)=0.174603 at 2.47e-006
analog_input_455: v(vin)=0.192969 at 2.47e-006
output_code_456: v(dout)=0.174603 at 2.475e-006
analog_input_456: v(vin)=0.193359 at 2.475e-006
output_code_457: v(dout)=0.174603 at 2.48e-006
analog_input_457: v(vin)=0.19375 at 2.48e-006
output_code_458: v(dout)=0.174603 at 2.485e-006
analog_input_458: v(vin)=0.194141 at 2.485e-006
output_code_459: v(dout)=0.174603 at 2.49e-006
analog_input_459: v(vin)=0.194531 at 2.49e-006
output_code_460: v(dout)=0.174603 at 2.495e-006
analog_input_460: v(vin)=0.194922 at 2.495e-006
output_code_461: v(dout)=0.174603 at 2.5e-006
analog_input_461: v(vin)=0.195313 at 2.5e-006
output_code_462: v(dout)=0.174603 at 2.505e-006
analog_input_462: v(vin)=0.195703 at 2.505e-006
output_code_463: v(dout)=0.174603 at 2.51e-006
analog_input_463: v(vin)=0.196094 at 2.51e-006
output_code_464: v(dout)=0.174603 at 2.515e-006
analog_input_464: v(vin)=0.196484 at 2.515e-006
output_code_465: v(dout)=0.174603 at 2.52e-006
analog_input_465: v(vin)=0.196875 at 2.52e-006
output_code_466: v(dout)=0.174603 at 2.525e-006
analog_input_466: v(vin)=0.197266 at 2.525e-006
output_code_467: v(dout)=0.174603 at 2.53e-006
analog_input_467: v(vin)=0.197656 at 2.53e-006
output_code_468: v(dout)=0.174603 at 2.535e-006
analog_input_468: v(vin)=0.198047 at 2.535e-006
output_code_469: v(dout)=0.174603 at 2.54e-006
analog_input_469: v(vin)=0.198438 at 2.54e-006
output_code_470: v(dout)=0.174603 at 2.545e-006
analog_input_470: v(vin)=0.198828 at 2.545e-006
output_code_471: v(dout)=0.174603 at 2.55e-006
analog_input_471: v(vin)=0.199219 at 2.55e-006
output_code_472: v(dout)=0.174603 at 2.555e-006
analog_input_472: v(vin)=0.199609 at 2.555e-006
output_code_473: v(dout)=0.174603 at 2.56e-006
analog_input_473: v(vin)=0.2 at 2.56e-006
output_code_474: v(dout)=0.174603 at 2.565e-006
analog_input_474: v(vin)=0.200391 at 2.565e-006
output_code_475: v(dout)=0.174603 at 2.57e-006
analog_input_475: v(vin)=0.200781 at 2.57e-006
output_code_476: v(dout)=0.174603 at 2.575e-006
analog_input_476: v(vin)=0.201172 at 2.575e-006
output_code_477: v(dout)=0.174603 at 2.58e-006
analog_input_477: v(vin)=0.201563 at 2.58e-006
output_code_478: v(dout)=0.190476 at 2.585e-006
analog_input_478: v(vin)=0.201953 at 2.585e-006
output_code_479: v(dout)=0.190476 at 2.59e-006
analog_input_479: v(vin)=0.202344 at 2.59e-006
output_code_480: v(dout)=0.190476 at 2.595e-006
analog_input_480: v(vin)=0.202734 at 2.595e-006
output_code_481: v(dout)=0.190476 at 2.6e-006
analog_input_481: v(vin)=0.203125 at 2.6e-006
output_code_482: v(dout)=0.190476 at 2.605e-006
analog_input_482: v(vin)=0.203516 at 2.605e-006
output_code_483: v(dout)=0.190476 at 2.61e-006
analog_input_483: v(vin)=0.203906 at 2.61e-006
output_code_484: v(dout)=0.190476 at 2.615e-006
analog_input_484: v(vin)=0.204297 at 2.615e-006
output_code_485: v(dout)=0.190476 at 2.62e-006
analog_input_485: v(vin)=0.204688 at 2.62e-006
output_code_486: v(dout)=0.190476 at 2.625e-006
analog_input_486: v(vin)=0.205078 at 2.625e-006
output_code_487: v(dout)=0.190476 at 2.63e-006
analog_input_487: v(vin)=0.205469 at 2.63e-006
output_code_488: v(dout)=0.190476 at 2.635e-006
analog_input_488: v(vin)=0.205859 at 2.635e-006
output_code_489: v(dout)=0.190476 at 2.64e-006
analog_input_489: v(vin)=0.20625 at 2.64e-006
output_code_490: v(dout)=0.190476 at 2.645e-006
analog_input_490: v(vin)=0.206641 at 2.645e-006
output_code_491: v(dout)=0.190476 at 2.65e-006
analog_input_491: v(vin)=0.207031 at 2.65e-006
output_code_492: v(dout)=0.190476 at 2.655e-006
analog_input_492: v(vin)=0.207422 at 2.655e-006
output_code_493: v(dout)=0.190476 at 2.66e-006
analog_input_493: v(vin)=0.207813 at 2.66e-006
output_code_494: v(dout)=0.190476 at 2.665e-006
analog_input_494: v(vin)=0.208203 at 2.665e-006
output_code_495: v(dout)=0.190476 at 2.67e-006
analog_input_495: v(vin)=0.208594 at 2.67e-006
output_code_496: v(dout)=0.190476 at 2.675e-006
analog_input_496: v(vin)=0.208984 at 2.675e-006
output_code_497: v(dout)=0.190476 at 2.68e-006
analog_input_497: v(vin)=0.209375 at 2.68e-006
output_code_498: v(dout)=0.190476 at 2.685e-006
analog_input_498: v(vin)=0.209766 at 2.685e-006
output_code_499: v(dout)=0.190476 at 2.69e-006
analog_input_499: v(vin)=0.210156 at 2.69e-006
output_code_500: v(dout)=0.190476 at 2.695e-006
analog_input_500: v(vin)=0.210547 at 2.695e-006
output_code_501: v(dout)=0.190476 at 2.7e-006
analog_input_501: v(vin)=0.210938 at 2.7e-006
output_code_502: v(dout)=0.190476 at 2.705e-006
analog_input_502: v(vin)=0.211328 at 2.705e-006
output_code_503: v(dout)=0.190476 at 2.71e-006
analog_input_503: v(vin)=0.211719 at 2.71e-006
output_code_504: v(dout)=0.190476 at 2.715e-006
analog_input_504: v(vin)=0.212109 at 2.715e-006
output_code_505: v(dout)=0.190476 at 2.72e-006
analog_input_505: v(vin)=0.2125 at 2.72e-006
output_code_506: v(dout)=0.190476 at 2.725e-006
analog_input_506: v(vin)=0.212891 at 2.725e-006
output_code_507: v(dout)=0.190476 at 2.73e-006
analog_input_507: v(vin)=0.213281 at 2.73e-006
output_code_508: v(dout)=0.190476 at 2.735e-006
analog_input_508: v(vin)=0.213672 at 2.735e-006
output_code_509: v(dout)=0.190476 at 2.74e-006
analog_input_509: v(vin)=0.214063 at 2.74e-006
output_code_510: v(dout)=0.190476 at 2.745e-006
analog_input_510: v(vin)=0.214453 at 2.745e-006
output_code_511: v(dout)=0.190476 at 2.75e-006
analog_input_511: v(vin)=0.214844 at 2.75e-006
output_code_512: v(dout)=0.190476 at 2.755e-006
analog_input_512: v(vin)=0.215234 at 2.755e-006
output_code_513: v(dout)=0.190476 at 2.76e-006
analog_input_513: v(vin)=0.215625 at 2.76e-006
output_code_514: v(dout)=0.190476 at 2.765e-006
analog_input_514: v(vin)=0.216016 at 2.765e-006
output_code_515: v(dout)=0.190476 at 2.77e-006
analog_input_515: v(vin)=0.216406 at 2.77e-006
output_code_516: v(dout)=0.190476 at 2.775e-006
analog_input_516: v(vin)=0.216797 at 2.775e-006
output_code_517: v(dout)=0.190476 at 2.78e-006
analog_input_517: v(vin)=0.217188 at 2.78e-006
output_code_518: v(dout)=0.206349 at 2.785e-006
analog_input_518: v(vin)=0.217578 at 2.785e-006
output_code_519: v(dout)=0.206349 at 2.79e-006
analog_input_519: v(vin)=0.217969 at 2.79e-006
output_code_520: v(dout)=0.206349 at 2.795e-006
analog_input_520: v(vin)=0.218359 at 2.795e-006
output_code_521: v(dout)=0.206349 at 2.8e-006
analog_input_521: v(vin)=0.21875 at 2.8e-006
output_code_522: v(dout)=0.206349 at 2.805e-006
analog_input_522: v(vin)=0.219141 at 2.805e-006
output_code_523: v(dout)=0.206349 at 2.81e-006
analog_input_523: v(vin)=0.219531 at 2.81e-006
output_code_524: v(dout)=0.206349 at 2.815e-006
analog_input_524: v(vin)=0.219922 at 2.815e-006
output_code_525: v(dout)=0.206349 at 2.82e-006
analog_input_525: v(vin)=0.220313 at 2.82e-006
output_code_526: v(dout)=0.206349 at 2.825e-006
analog_input_526: v(vin)=0.220703 at 2.825e-006
output_code_527: v(dout)=0.206349 at 2.83e-006
analog_input_527: v(vin)=0.221094 at 2.83e-006
output_code_528: v(dout)=0.206349 at 2.835e-006
analog_input_528: v(vin)=0.221484 at 2.835e-006
output_code_529: v(dout)=0.206349 at 2.84e-006
analog_input_529: v(vin)=0.221875 at 2.84e-006
output_code_530: v(dout)=0.206349 at 2.845e-006
analog_input_530: v(vin)=0.222266 at 2.845e-006
output_code_531: v(dout)=0.206349 at 2.85e-006
analog_input_531: v(vin)=0.222656 at 2.85e-006
output_code_532: v(dout)=0.206349 at 2.855e-006
analog_input_532: v(vin)=0.223047 at 2.855e-006
output_code_533: v(dout)=0.206349 at 2.86e-006
analog_input_533: v(vin)=0.223438 at 2.86e-006
output_code_534: v(dout)=0.206349 at 2.865e-006
analog_input_534: v(vin)=0.223828 at 2.865e-006
output_code_535: v(dout)=0.206349 at 2.87e-006
analog_input_535: v(vin)=0.224219 at 2.87e-006
output_code_536: v(dout)=0.206349 at 2.875e-006
analog_input_536: v(vin)=0.224609 at 2.875e-006
output_code_537: v(dout)=0.206349 at 2.88e-006
analog_input_537: v(vin)=0.225 at 2.88e-006
output_code_538: v(dout)=0.206349 at 2.885e-006
analog_input_538: v(vin)=0.225391 at 2.885e-006
output_code_539: v(dout)=0.206349 at 2.89e-006
analog_input_539: v(vin)=0.225781 at 2.89e-006
output_code_540: v(dout)=0.206349 at 2.895e-006
analog_input_540: v(vin)=0.226172 at 2.895e-006
output_code_541: v(dout)=0.206349 at 2.9e-006
analog_input_541: v(vin)=0.226563 at 2.9e-006
output_code_542: v(dout)=0.206349 at 2.905e-006
analog_input_542: v(vin)=0.226953 at 2.905e-006
output_code_543: v(dout)=0.206349 at 2.91e-006
analog_input_543: v(vin)=0.227344 at 2.91e-006
output_code_544: v(dout)=0.206349 at 2.915e-006
analog_input_544: v(vin)=0.227734 at 2.915e-006
output_code_545: v(dout)=0.206349 at 2.92e-006
analog_input_545: v(vin)=0.228125 at 2.92e-006
output_code_546: v(dout)=0.206349 at 2.925e-006
analog_input_546: v(vin)=0.228516 at 2.925e-006
output_code_547: v(dout)=0.206349 at 2.93e-006
analog_input_547: v(vin)=0.228906 at 2.93e-006
output_code_548: v(dout)=0.206349 at 2.935e-006
analog_input_548: v(vin)=0.229297 at 2.935e-006
output_code_549: v(dout)=0.206349 at 2.94e-006
analog_input_549: v(vin)=0.229688 at 2.94e-006
output_code_550: v(dout)=0.206349 at 2.945e-006
analog_input_550: v(vin)=0.230078 at 2.945e-006
output_code_551: v(dout)=0.206349 at 2.95e-006
analog_input_551: v(vin)=0.230469 at 2.95e-006
output_code_552: v(dout)=0.206349 at 2.955e-006
analog_input_552: v(vin)=0.230859 at 2.955e-006
output_code_553: v(dout)=0.206349 at 2.96e-006
analog_input_553: v(vin)=0.23125 at 2.96e-006
output_code_554: v(dout)=0.206349 at 2.965e-006
analog_input_554: v(vin)=0.231641 at 2.965e-006
output_code_555: v(dout)=0.206349 at 2.97e-006
analog_input_555: v(vin)=0.232031 at 2.97e-006
output_code_556: v(dout)=0.206349 at 2.975e-006
analog_input_556: v(vin)=0.232422 at 2.975e-006
output_code_557: v(dout)=0.206349 at 2.98e-006
analog_input_557: v(vin)=0.232813 at 2.98e-006
output_code_558: v(dout)=0.222222 at 2.985e-006
analog_input_558: v(vin)=0.233203 at 2.985e-006
output_code_559: v(dout)=0.222222 at 2.99e-006
analog_input_559: v(vin)=0.233594 at 2.99e-006
output_code_560: v(dout)=0.222222 at 2.995e-006
analog_input_560: v(vin)=0.233984 at 2.995e-006
output_code_561: v(dout)=0.222222 at 3e-006
analog_input_561: v(vin)=0.234375 at 3e-006
output_code_562: v(dout)=0.222222 at 3.005e-006
analog_input_562: v(vin)=0.234766 at 3.005e-006
output_code_563: v(dout)=0.222222 at 3.01e-006
analog_input_563: v(vin)=0.235156 at 3.01e-006
output_code_564: v(dout)=0.222222 at 3.015e-006
analog_input_564: v(vin)=0.235547 at 3.015e-006
output_code_565: v(dout)=0.222222 at 3.02e-006
analog_input_565: v(vin)=0.235938 at 3.02e-006
output_code_566: v(dout)=0.222222 at 3.025e-006
analog_input_566: v(vin)=0.236328 at 3.025e-006
output_code_567: v(dout)=0.222222 at 3.03e-006
analog_input_567: v(vin)=0.236719 at 3.03e-006
output_code_568: v(dout)=0.222222 at 3.035e-006
analog_input_568: v(vin)=0.237109 at 3.035e-006
output_code_569: v(dout)=0.222222 at 3.04e-006
analog_input_569: v(vin)=0.2375 at 3.04e-006
output_code_570: v(dout)=0.222222 at 3.045e-006
analog_input_570: v(vin)=0.237891 at 3.045e-006
output_code_571: v(dout)=0.222222 at 3.05e-006
analog_input_571: v(vin)=0.238281 at 3.05e-006
output_code_572: v(dout)=0.222222 at 3.055e-006
analog_input_572: v(vin)=0.238672 at 3.055e-006
output_code_573: v(dout)=0.222222 at 3.06e-006
analog_input_573: v(vin)=0.239063 at 3.06e-006
output_code_574: v(dout)=0.222222 at 3.065e-006
analog_input_574: v(vin)=0.239453 at 3.065e-006
output_code_575: v(dout)=0.222222 at 3.07e-006
analog_input_575: v(vin)=0.239844 at 3.07e-006
output_code_576: v(dout)=0.222222 at 3.075e-006
analog_input_576: v(vin)=0.240234 at 3.075e-006
output_code_577: v(dout)=0.222222 at 3.08e-006
analog_input_577: v(vin)=0.240625 at 3.08e-006
output_code_578: v(dout)=0.222222 at 3.085e-006
analog_input_578: v(vin)=0.241016 at 3.085e-006
output_code_579: v(dout)=0.222222 at 3.09e-006
analog_input_579: v(vin)=0.241406 at 3.09e-006
output_code_580: v(dout)=0.222222 at 3.095e-006
analog_input_580: v(vin)=0.241797 at 3.095e-006
output_code_581: v(dout)=0.222222 at 3.1e-006
analog_input_581: v(vin)=0.242188 at 3.1e-006
output_code_582: v(dout)=0.222222 at 3.105e-006
analog_input_582: v(vin)=0.242578 at 3.105e-006
output_code_583: v(dout)=0.222222 at 3.11e-006
analog_input_583: v(vin)=0.242969 at 3.11e-006
output_code_584: v(dout)=0.222222 at 3.115e-006
analog_input_584: v(vin)=0.243359 at 3.115e-006
output_code_585: v(dout)=0.222222 at 3.12e-006
analog_input_585: v(vin)=0.24375 at 3.12e-006
output_code_586: v(dout)=0.222222 at 3.125e-006
analog_input_586: v(vin)=0.244141 at 3.125e-006
output_code_587: v(dout)=0.222222 at 3.13e-006
analog_input_587: v(vin)=0.244531 at 3.13e-006
output_code_588: v(dout)=0.222222 at 3.135e-006
analog_input_588: v(vin)=0.244922 at 3.135e-006
output_code_589: v(dout)=0.222222 at 3.14e-006
analog_input_589: v(vin)=0.245313 at 3.14e-006
output_code_590: v(dout)=0.222222 at 3.145e-006
analog_input_590: v(vin)=0.245703 at 3.145e-006
output_code_591: v(dout)=0.222222 at 3.15e-006
analog_input_591: v(vin)=0.246094 at 3.15e-006
output_code_592: v(dout)=0.222222 at 3.155e-006
analog_input_592: v(vin)=0.246484 at 3.155e-006
output_code_593: v(dout)=0.222222 at 3.16e-006
analog_input_593: v(vin)=0.246875 at 3.16e-006
output_code_594: v(dout)=0.222222 at 3.165e-006
analog_input_594: v(vin)=0.247266 at 3.165e-006
output_code_595: v(dout)=0.222222 at 3.17e-006
analog_input_595: v(vin)=0.247656 at 3.17e-006
output_code_596: v(dout)=0.222222 at 3.175e-006
analog_input_596: v(vin)=0.248047 at 3.175e-006
output_code_597: v(dout)=0.222222 at 3.18e-006
analog_input_597: v(vin)=0.248438 at 3.18e-006
output_code_598: v(dout)=0.238095 at 3.185e-006
analog_input_598: v(vin)=0.248828 at 3.185e-006
output_code_599: v(dout)=0.238095 at 3.19e-006
analog_input_599: v(vin)=0.249219 at 3.19e-006
output_code_600: v(dout)=0.238095 at 3.195e-006
analog_input_600: v(vin)=0.249609 at 3.195e-006
output_code_601: v(dout)=0.238095 at 3.2e-006
analog_input_601: v(vin)=0.25 at 3.2e-006
output_code_602: v(dout)=0.238095 at 3.205e-006
analog_input_602: v(vin)=0.250391 at 3.205e-006
output_code_603: v(dout)=0.238095 at 3.21e-006
analog_input_603: v(vin)=0.250781 at 3.21e-006
output_code_604: v(dout)=0.238095 at 3.215e-006
analog_input_604: v(vin)=0.251172 at 3.215e-006
output_code_605: v(dout)=0.238095 at 3.22e-006
analog_input_605: v(vin)=0.251563 at 3.22e-006
output_code_606: v(dout)=0.238095 at 3.225e-006
analog_input_606: v(vin)=0.251953 at 3.225e-006
output_code_607: v(dout)=0.238095 at 3.23e-006
analog_input_607: v(vin)=0.252344 at 3.23e-006
output_code_608: v(dout)=0.238095 at 3.235e-006
analog_input_608: v(vin)=0.252734 at 3.235e-006
output_code_609: v(dout)=0.238095 at 3.24e-006
analog_input_609: v(vin)=0.253125 at 3.24e-006
output_code_610: v(dout)=0.238095 at 3.245e-006
analog_input_610: v(vin)=0.253516 at 3.245e-006
output_code_611: v(dout)=0.238095 at 3.25e-006
analog_input_611: v(vin)=0.253906 at 3.25e-006
output_code_612: v(dout)=0.238095 at 3.255e-006
analog_input_612: v(vin)=0.254297 at 3.255e-006
output_code_613: v(dout)=0.238095 at 3.26e-006
analog_input_613: v(vin)=0.254688 at 3.26e-006
output_code_614: v(dout)=0.238095 at 3.265e-006
analog_input_614: v(vin)=0.255078 at 3.265e-006
output_code_615: v(dout)=0.238095 at 3.27e-006
analog_input_615: v(vin)=0.255469 at 3.27e-006
output_code_616: v(dout)=0.238095 at 3.275e-006
analog_input_616: v(vin)=0.255859 at 3.275e-006
output_code_617: v(dout)=0.238095 at 3.28e-006
analog_input_617: v(vin)=0.25625 at 3.28e-006
output_code_618: v(dout)=0.238095 at 3.285e-006
analog_input_618: v(vin)=0.256641 at 3.285e-006
output_code_619: v(dout)=0.238095 at 3.29e-006
analog_input_619: v(vin)=0.257031 at 3.29e-006
output_code_620: v(dout)=0.238095 at 3.295e-006
analog_input_620: v(vin)=0.257422 at 3.295e-006
output_code_621: v(dout)=0.238095 at 3.3e-006
analog_input_621: v(vin)=0.257813 at 3.3e-006
output_code_622: v(dout)=0.238095 at 3.305e-006
analog_input_622: v(vin)=0.258203 at 3.305e-006
output_code_623: v(dout)=0.238095 at 3.31e-006
analog_input_623: v(vin)=0.258594 at 3.31e-006
output_code_624: v(dout)=0.238095 at 3.315e-006
analog_input_624: v(vin)=0.258984 at 3.315e-006
output_code_625: v(dout)=0.238095 at 3.32e-006
analog_input_625: v(vin)=0.259375 at 3.32e-006
output_code_626: v(dout)=0.238095 at 3.325e-006
analog_input_626: v(vin)=0.259766 at 3.325e-006
output_code_627: v(dout)=0.238095 at 3.33e-006
analog_input_627: v(vin)=0.260156 at 3.33e-006
output_code_628: v(dout)=0.238095 at 3.335e-006
analog_input_628: v(vin)=0.260547 at 3.335e-006
output_code_629: v(dout)=0.238095 at 3.34e-006
analog_input_629: v(vin)=0.260938 at 3.34e-006
output_code_630: v(dout)=0.238095 at 3.345e-006
analog_input_630: v(vin)=0.261328 at 3.345e-006
output_code_631: v(dout)=0.238095 at 3.35e-006
analog_input_631: v(vin)=0.261719 at 3.35e-006
output_code_632: v(dout)=0.238095 at 3.355e-006
analog_input_632: v(vin)=0.262109 at 3.355e-006
output_code_633: v(dout)=0.238095 at 3.36e-006
analog_input_633: v(vin)=0.2625 at 3.36e-006
output_code_634: v(dout)=0.238095 at 3.365e-006
analog_input_634: v(vin)=0.262891 at 3.365e-006
output_code_635: v(dout)=0.238095 at 3.37e-006
analog_input_635: v(vin)=0.263281 at 3.37e-006
output_code_636: v(dout)=0.238095 at 3.375e-006
analog_input_636: v(vin)=0.263672 at 3.375e-006
output_code_637: v(dout)=0.238095 at 3.38e-006
analog_input_637: v(vin)=0.264063 at 3.38e-006
output_code_638: v(dout)=0.253968 at 3.385e-006
analog_input_638: v(vin)=0.264453 at 3.385e-006
output_code_639: v(dout)=0.253968 at 3.39e-006
analog_input_639: v(vin)=0.264844 at 3.39e-006
output_code_640: v(dout)=0.253968 at 3.395e-006
analog_input_640: v(vin)=0.265234 at 3.395e-006
output_code_641: v(dout)=0.253968 at 3.4e-006
analog_input_641: v(vin)=0.265625 at 3.4e-006
output_code_642: v(dout)=0.253968 at 3.405e-006
analog_input_642: v(vin)=0.266016 at 3.405e-006
output_code_643: v(dout)=0.253968 at 3.41e-006
analog_input_643: v(vin)=0.266406 at 3.41e-006
output_code_644: v(dout)=0.253968 at 3.415e-006
analog_input_644: v(vin)=0.266797 at 3.415e-006
output_code_645: v(dout)=0.253968 at 3.42e-006
analog_input_645: v(vin)=0.267188 at 3.42e-006
output_code_646: v(dout)=0.253968 at 3.425e-006
analog_input_646: v(vin)=0.267578 at 3.425e-006
output_code_647: v(dout)=0.253968 at 3.43e-006
analog_input_647: v(vin)=0.267969 at 3.43e-006
output_code_648: v(dout)=0.253968 at 3.435e-006
analog_input_648: v(vin)=0.268359 at 3.435e-006
output_code_649: v(dout)=0.253968 at 3.44e-006
analog_input_649: v(vin)=0.26875 at 3.44e-006
output_code_650: v(dout)=0.253968 at 3.445e-006
analog_input_650: v(vin)=0.269141 at 3.445e-006
output_code_651: v(dout)=0.253968 at 3.45e-006
analog_input_651: v(vin)=0.269531 at 3.45e-006
output_code_652: v(dout)=0.253968 at 3.455e-006
analog_input_652: v(vin)=0.269922 at 3.455e-006
output_code_653: v(dout)=0.253968 at 3.46e-006
analog_input_653: v(vin)=0.270313 at 3.46e-006
output_code_654: v(dout)=0.253968 at 3.465e-006
analog_input_654: v(vin)=0.270703 at 3.465e-006
output_code_655: v(dout)=0.253968 at 3.47e-006
analog_input_655: v(vin)=0.271094 at 3.47e-006
output_code_656: v(dout)=0.253968 at 3.475e-006
analog_input_656: v(vin)=0.271484 at 3.475e-006
output_code_657: v(dout)=0.253968 at 3.48e-006
analog_input_657: v(vin)=0.271875 at 3.48e-006
output_code_658: v(dout)=0.253968 at 3.485e-006
analog_input_658: v(vin)=0.272266 at 3.485e-006
output_code_659: v(dout)=0.253968 at 3.49e-006
analog_input_659: v(vin)=0.272656 at 3.49e-006
output_code_660: v(dout)=0.253968 at 3.495e-006
analog_input_660: v(vin)=0.273047 at 3.495e-006
output_code_661: v(dout)=0.253968 at 3.5e-006
analog_input_661: v(vin)=0.273438 at 3.5e-006
output_code_662: v(dout)=0.253968 at 3.505e-006
analog_input_662: v(vin)=0.273828 at 3.505e-006
output_code_663: v(dout)=0.253968 at 3.51e-006
analog_input_663: v(vin)=0.274219 at 3.51e-006
output_code_664: v(dout)=0.253968 at 3.515e-006
analog_input_664: v(vin)=0.274609 at 3.515e-006
output_code_665: v(dout)=0.253968 at 3.52e-006
analog_input_665: v(vin)=0.275 at 3.52e-006
output_code_666: v(dout)=0.253968 at 3.525e-006
analog_input_666: v(vin)=0.275391 at 3.525e-006
output_code_667: v(dout)=0.253968 at 3.53e-006
analog_input_667: v(vin)=0.275781 at 3.53e-006
output_code_668: v(dout)=0.253968 at 3.535e-006
analog_input_668: v(vin)=0.276172 at 3.535e-006
output_code_669: v(dout)=0.253968 at 3.54e-006
analog_input_669: v(vin)=0.276563 at 3.54e-006
output_code_670: v(dout)=0.253968 at 3.545e-006
analog_input_670: v(vin)=0.276953 at 3.545e-006
output_code_671: v(dout)=0.253968 at 3.55e-006
analog_input_671: v(vin)=0.277344 at 3.55e-006
output_code_672: v(dout)=0.253968 at 3.555e-006
analog_input_672: v(vin)=0.277734 at 3.555e-006
output_code_673: v(dout)=0.253968 at 3.56e-006
analog_input_673: v(vin)=0.278125 at 3.56e-006
output_code_674: v(dout)=0.253968 at 3.565e-006
analog_input_674: v(vin)=0.278516 at 3.565e-006
output_code_675: v(dout)=0.253968 at 3.57e-006
analog_input_675: v(vin)=0.278906 at 3.57e-006
output_code_676: v(dout)=0.253968 at 3.575e-006
analog_input_676: v(vin)=0.279297 at 3.575e-006
output_code_677: v(dout)=0.253968 at 3.58e-006
analog_input_677: v(vin)=0.279687 at 3.58e-006
output_code_678: v(dout)=0.269841 at 3.585e-006
analog_input_678: v(vin)=0.280078 at 3.585e-006
output_code_679: v(dout)=0.269841 at 3.59e-006
analog_input_679: v(vin)=0.280469 at 3.59e-006
output_code_680: v(dout)=0.269841 at 3.595e-006
analog_input_680: v(vin)=0.280859 at 3.595e-006
output_code_681: v(dout)=0.269841 at 3.6e-006
analog_input_681: v(vin)=0.28125 at 3.6e-006
output_code_682: v(dout)=0.269841 at 3.605e-006
analog_input_682: v(vin)=0.281641 at 3.605e-006
output_code_683: v(dout)=0.269841 at 3.61e-006
analog_input_683: v(vin)=0.282031 at 3.61e-006
output_code_684: v(dout)=0.269841 at 3.615e-006
analog_input_684: v(vin)=0.282422 at 3.615e-006
output_code_685: v(dout)=0.269841 at 3.62e-006
analog_input_685: v(vin)=0.282813 at 3.62e-006
output_code_686: v(dout)=0.269841 at 3.625e-006
analog_input_686: v(vin)=0.283203 at 3.625e-006
output_code_687: v(dout)=0.269841 at 3.63e-006
analog_input_687: v(vin)=0.283594 at 3.63e-006
output_code_688: v(dout)=0.269841 at 3.635e-006
analog_input_688: v(vin)=0.283984 at 3.635e-006
output_code_689: v(dout)=0.269841 at 3.64e-006
analog_input_689: v(vin)=0.284375 at 3.64e-006
output_code_690: v(dout)=0.269841 at 3.645e-006
analog_input_690: v(vin)=0.284766 at 3.645e-006
output_code_691: v(dout)=0.269841 at 3.65e-006
analog_input_691: v(vin)=0.285156 at 3.65e-006
output_code_692: v(dout)=0.269841 at 3.655e-006
analog_input_692: v(vin)=0.285547 at 3.655e-006
output_code_693: v(dout)=0.269841 at 3.66e-006
analog_input_693: v(vin)=0.285938 at 3.66e-006
output_code_694: v(dout)=0.269841 at 3.665e-006
analog_input_694: v(vin)=0.286328 at 3.665e-006
output_code_695: v(dout)=0.269841 at 3.67e-006
analog_input_695: v(vin)=0.286719 at 3.67e-006
output_code_696: v(dout)=0.269841 at 3.675e-006
analog_input_696: v(vin)=0.287109 at 3.675e-006
output_code_697: v(dout)=0.269841 at 3.68e-006
analog_input_697: v(vin)=0.2875 at 3.68e-006
output_code_698: v(dout)=0.269841 at 3.685e-006
analog_input_698: v(vin)=0.287891 at 3.685e-006
output_code_699: v(dout)=0.269841 at 3.69e-006
analog_input_699: v(vin)=0.288281 at 3.69e-006
output_code_700: v(dout)=0.269841 at 3.695e-006
analog_input_700: v(vin)=0.288672 at 3.695e-006
output_code_701: v(dout)=0.269841 at 3.7e-006
analog_input_701: v(vin)=0.289063 at 3.7e-006
output_code_702: v(dout)=0.269841 at 3.705e-006
analog_input_702: v(vin)=0.289453 at 3.705e-006
output_code_703: v(dout)=0.269841 at 3.71e-006
analog_input_703: v(vin)=0.289844 at 3.71e-006
output_code_704: v(dout)=0.269841 at 3.715e-006
analog_input_704: v(vin)=0.290234 at 3.715e-006
output_code_705: v(dout)=0.269841 at 3.72e-006
analog_input_705: v(vin)=0.290625 at 3.72e-006
output_code_706: v(dout)=0.269841 at 3.725e-006
analog_input_706: v(vin)=0.291016 at 3.725e-006
output_code_707: v(dout)=0.269841 at 3.73e-006
analog_input_707: v(vin)=0.291406 at 3.73e-006
output_code_708: v(dout)=0.269841 at 3.735e-006
analog_input_708: v(vin)=0.291797 at 3.735e-006
output_code_709: v(dout)=0.269841 at 3.74e-006
analog_input_709: v(vin)=0.292188 at 3.74e-006
output_code_710: v(dout)=0.269841 at 3.745e-006
analog_input_710: v(vin)=0.292578 at 3.745e-006
output_code_711: v(dout)=0.269841 at 3.75e-006
analog_input_711: v(vin)=0.292969 at 3.75e-006
output_code_712: v(dout)=0.269841 at 3.755e-006
analog_input_712: v(vin)=0.293359 at 3.755e-006
output_code_713: v(dout)=0.269841 at 3.76e-006
analog_input_713: v(vin)=0.29375 at 3.76e-006
output_code_714: v(dout)=0.269841 at 3.765e-006
analog_input_714: v(vin)=0.294141 at 3.765e-006
output_code_715: v(dout)=0.269841 at 3.77e-006
analog_input_715: v(vin)=0.294531 at 3.77e-006
output_code_716: v(dout)=0.269841 at 3.775e-006
analog_input_716: v(vin)=0.294922 at 3.775e-006
output_code_717: v(dout)=0.269841 at 3.78e-006
analog_input_717: v(vin)=0.295313 at 3.78e-006
output_code_718: v(dout)=0.285714 at 3.785e-006
analog_input_718: v(vin)=0.295703 at 3.785e-006
output_code_719: v(dout)=0.285714 at 3.79e-006
analog_input_719: v(vin)=0.296094 at 3.79e-006
output_code_720: v(dout)=0.285714 at 3.795e-006
analog_input_720: v(vin)=0.296484 at 3.795e-006
output_code_721: v(dout)=0.285714 at 3.8e-006
analog_input_721: v(vin)=0.296875 at 3.8e-006
output_code_722: v(dout)=0.285714 at 3.805e-006
analog_input_722: v(vin)=0.297266 at 3.805e-006
output_code_723: v(dout)=0.285714 at 3.81e-006
analog_input_723: v(vin)=0.297656 at 3.81e-006
output_code_724: v(dout)=0.285714 at 3.815e-006
analog_input_724: v(vin)=0.298047 at 3.815e-006
output_code_725: v(dout)=0.285714 at 3.82e-006
analog_input_725: v(vin)=0.298438 at 3.82e-006
output_code_726: v(dout)=0.285714 at 3.825e-006
analog_input_726: v(vin)=0.298828 at 3.825e-006
output_code_727: v(dout)=0.285714 at 3.83e-006
analog_input_727: v(vin)=0.299219 at 3.83e-006
output_code_728: v(dout)=0.285714 at 3.835e-006
analog_input_728: v(vin)=0.299609 at 3.835e-006
output_code_729: v(dout)=0.285714 at 3.84e-006
analog_input_729: v(vin)=0.3 at 3.84e-006
output_code_730: v(dout)=0.285714 at 3.845e-006
analog_input_730: v(vin)=0.300391 at 3.845e-006
output_code_731: v(dout)=0.285714 at 3.85e-006
analog_input_731: v(vin)=0.300781 at 3.85e-006
output_code_732: v(dout)=0.285714 at 3.855e-006
analog_input_732: v(vin)=0.301172 at 3.855e-006
output_code_733: v(dout)=0.285714 at 3.86e-006
analog_input_733: v(vin)=0.301563 at 3.86e-006
output_code_734: v(dout)=0.285714 at 3.865e-006
analog_input_734: v(vin)=0.301953 at 3.865e-006
output_code_735: v(dout)=0.285714 at 3.87e-006
analog_input_735: v(vin)=0.302344 at 3.87e-006
output_code_736: v(dout)=0.285714 at 3.875e-006
analog_input_736: v(vin)=0.302734 at 3.875e-006
output_code_737: v(dout)=0.285714 at 3.88e-006
analog_input_737: v(vin)=0.303125 at 3.88e-006
output_code_738: v(dout)=0.285714 at 3.885e-006
analog_input_738: v(vin)=0.303516 at 3.885e-006
output_code_739: v(dout)=0.285714 at 3.89e-006
analog_input_739: v(vin)=0.303906 at 3.89e-006
output_code_740: v(dout)=0.285714 at 3.895e-006
analog_input_740: v(vin)=0.304297 at 3.895e-006
output_code_741: v(dout)=0.285714 at 3.9e-006
analog_input_741: v(vin)=0.304688 at 3.9e-006
output_code_742: v(dout)=0.285714 at 3.905e-006
analog_input_742: v(vin)=0.305078 at 3.905e-006
output_code_743: v(dout)=0.285714 at 3.91e-006
analog_input_743: v(vin)=0.305469 at 3.91e-006
output_code_744: v(dout)=0.285714 at 3.915e-006
analog_input_744: v(vin)=0.305859 at 3.915e-006
output_code_745: v(dout)=0.285714 at 3.92e-006
analog_input_745: v(vin)=0.30625 at 3.92e-006
output_code_746: v(dout)=0.285714 at 3.925e-006
analog_input_746: v(vin)=0.306641 at 3.925e-006
output_code_747: v(dout)=0.285714 at 3.93e-006
analog_input_747: v(vin)=0.307031 at 3.93e-006
output_code_748: v(dout)=0.285714 at 3.935e-006
analog_input_748: v(vin)=0.307422 at 3.935e-006
output_code_749: v(dout)=0.285714 at 3.94e-006
analog_input_749: v(vin)=0.307813 at 3.94e-006
output_code_750: v(dout)=0.285714 at 3.945e-006
analog_input_750: v(vin)=0.308203 at 3.945e-006
output_code_751: v(dout)=0.285714 at 3.95e-006
analog_input_751: v(vin)=0.308594 at 3.95e-006
output_code_752: v(dout)=0.285714 at 3.955e-006
analog_input_752: v(vin)=0.308984 at 3.955e-006
output_code_753: v(dout)=0.285714 at 3.96e-006
analog_input_753: v(vin)=0.309375 at 3.96e-006
output_code_754: v(dout)=0.285714 at 3.965e-006
analog_input_754: v(vin)=0.309766 at 3.965e-006
output_code_755: v(dout)=0.285714 at 3.97e-006
analog_input_755: v(vin)=0.310156 at 3.97e-006
output_code_756: v(dout)=0.285714 at 3.975e-006
analog_input_756: v(vin)=0.310547 at 3.975e-006
output_code_757: v(dout)=0.285714 at 3.98e-006
analog_input_757: v(vin)=0.310938 at 3.98e-006
output_code_758: v(dout)=0.301587 at 3.985e-006
analog_input_758: v(vin)=0.311328 at 3.985e-006
output_code_759: v(dout)=0.301587 at 3.99e-006
analog_input_759: v(vin)=0.311719 at 3.99e-006
output_code_760: v(dout)=0.301587 at 3.995e-006
analog_input_760: v(vin)=0.312109 at 3.995e-006
output_code_761: v(dout)=0.301587 at 4e-006
analog_input_761: v(vin)=0.3125 at 4e-006
output_code_762: v(dout)=0.301587 at 4.005e-006
analog_input_762: v(vin)=0.312891 at 4.005e-006
output_code_763: v(dout)=0.301587 at 4.01e-006
analog_input_763: v(vin)=0.313281 at 4.01e-006
output_code_764: v(dout)=0.301587 at 4.015e-006
analog_input_764: v(vin)=0.313672 at 4.015e-006
output_code_765: v(dout)=0.301587 at 4.02e-006
analog_input_765: v(vin)=0.314063 at 4.02e-006
output_code_766: v(dout)=0.301587 at 4.025e-006
analog_input_766: v(vin)=0.314453 at 4.025e-006
output_code_767: v(dout)=0.301587 at 4.03e-006
analog_input_767: v(vin)=0.314844 at 4.03e-006
output_code_768: v(dout)=0.301587 at 4.035e-006
analog_input_768: v(vin)=0.315234 at 4.035e-006
output_code_769: v(dout)=0.301587 at 4.04e-006
analog_input_769: v(vin)=0.315625 at 4.04e-006
output_code_770: v(dout)=0.301587 at 4.045e-006
analog_input_770: v(vin)=0.316016 at 4.045e-006
output_code_771: v(dout)=0.301587 at 4.05e-006
analog_input_771: v(vin)=0.316406 at 4.05e-006
output_code_772: v(dout)=0.301587 at 4.055e-006
analog_input_772: v(vin)=0.316797 at 4.055e-006
output_code_773: v(dout)=0.301587 at 4.06e-006
analog_input_773: v(vin)=0.317188 at 4.06e-006
output_code_774: v(dout)=0.301587 at 4.065e-006
analog_input_774: v(vin)=0.317578 at 4.065e-006
output_code_775: v(dout)=0.301587 at 4.07e-006
analog_input_775: v(vin)=0.317969 at 4.07e-006
output_code_776: v(dout)=0.301587 at 4.075e-006
analog_input_776: v(vin)=0.318359 at 4.075e-006
output_code_777: v(dout)=0.301587 at 4.08e-006
analog_input_777: v(vin)=0.31875 at 4.08e-006
output_code_778: v(dout)=0.301587 at 4.085e-006
analog_input_778: v(vin)=0.319141 at 4.085e-006
output_code_779: v(dout)=0.301587 at 4.09e-006
analog_input_779: v(vin)=0.319531 at 4.09e-006
output_code_780: v(dout)=0.301587 at 4.095e-006
analog_input_780: v(vin)=0.319922 at 4.095e-006
output_code_781: v(dout)=0.301587 at 4.1e-006
analog_input_781: v(vin)=0.320313 at 4.1e-006
output_code_782: v(dout)=0.301587 at 4.105e-006
analog_input_782: v(vin)=0.320703 at 4.105e-006
output_code_783: v(dout)=0.301587 at 4.11e-006
analog_input_783: v(vin)=0.321094 at 4.11e-006
output_code_784: v(dout)=0.301587 at 4.115e-006
analog_input_784: v(vin)=0.321484 at 4.115e-006
output_code_785: v(dout)=0.301587 at 4.12e-006
analog_input_785: v(vin)=0.321875 at 4.12e-006
output_code_786: v(dout)=0.301587 at 4.125e-006
analog_input_786: v(vin)=0.322266 at 4.125e-006
output_code_787: v(dout)=0.301587 at 4.13e-006
analog_input_787: v(vin)=0.322656 at 4.13e-006
output_code_788: v(dout)=0.301587 at 4.135e-006
analog_input_788: v(vin)=0.323047 at 4.135e-006
output_code_789: v(dout)=0.301587 at 4.14e-006
analog_input_789: v(vin)=0.323438 at 4.14e-006
output_code_790: v(dout)=0.301587 at 4.145e-006
analog_input_790: v(vin)=0.323828 at 4.145e-006
output_code_791: v(dout)=0.301587 at 4.15e-006
analog_input_791: v(vin)=0.324219 at 4.15e-006
output_code_792: v(dout)=0.301587 at 4.155e-006
analog_input_792: v(vin)=0.324609 at 4.155e-006
output_code_793: v(dout)=0.301587 at 4.16e-006
analog_input_793: v(vin)=0.325 at 4.16e-006
output_code_794: v(dout)=0.301587 at 4.165e-006
analog_input_794: v(vin)=0.325391 at 4.165e-006
output_code_795: v(dout)=0.301587 at 4.17e-006
analog_input_795: v(vin)=0.325781 at 4.17e-006
output_code_796: v(dout)=0.301587 at 4.175e-006
analog_input_796: v(vin)=0.326172 at 4.175e-006
output_code_797: v(dout)=0.301587 at 4.18e-006
analog_input_797: v(vin)=0.326563 at 4.18e-006
output_code_798: v(dout)=0.31746 at 4.185e-006
analog_input_798: v(vin)=0.326953 at 4.185e-006
output_code_799: v(dout)=0.31746 at 4.19e-006
analog_input_799: v(vin)=0.327344 at 4.19e-006
output_code_800: v(dout)=0.31746 at 4.195e-006
analog_input_800: v(vin)=0.327734 at 4.195e-006
output_code_801: v(dout)=0.31746 at 4.2e-006
analog_input_801: v(vin)=0.328125 at 4.2e-006
output_code_802: v(dout)=0.31746 at 4.205e-006
analog_input_802: v(vin)=0.328516 at 4.205e-006
output_code_803: v(dout)=0.31746 at 4.21e-006
analog_input_803: v(vin)=0.328906 at 4.21e-006
output_code_804: v(dout)=0.31746 at 4.215e-006
analog_input_804: v(vin)=0.329297 at 4.215e-006
output_code_805: v(dout)=0.31746 at 4.22e-006
analog_input_805: v(vin)=0.329688 at 4.22e-006
output_code_806: v(dout)=0.31746 at 4.225e-006
analog_input_806: v(vin)=0.330078 at 4.225e-006
output_code_807: v(dout)=0.31746 at 4.23e-006
analog_input_807: v(vin)=0.330469 at 4.23e-006
output_code_808: v(dout)=0.31746 at 4.235e-006
analog_input_808: v(vin)=0.330859 at 4.235e-006
output_code_809: v(dout)=0.31746 at 4.24e-006
analog_input_809: v(vin)=0.33125 at 4.24e-006
output_code_810: v(dout)=0.31746 at 4.245e-006
analog_input_810: v(vin)=0.331641 at 4.245e-006
output_code_811: v(dout)=0.31746 at 4.25e-006
analog_input_811: v(vin)=0.332031 at 4.25e-006
output_code_812: v(dout)=0.31746 at 4.255e-006
analog_input_812: v(vin)=0.332422 at 4.255e-006
output_code_813: v(dout)=0.31746 at 4.26e-006
analog_input_813: v(vin)=0.332813 at 4.26e-006
output_code_814: v(dout)=0.31746 at 4.265e-006
analog_input_814: v(vin)=0.333203 at 4.265e-006
output_code_815: v(dout)=0.31746 at 4.27e-006
analog_input_815: v(vin)=0.333594 at 4.27e-006
output_code_816: v(dout)=0.31746 at 4.275e-006
analog_input_816: v(vin)=0.333984 at 4.275e-006
output_code_817: v(dout)=0.31746 at 4.28e-006
analog_input_817: v(vin)=0.334375 at 4.28e-006
output_code_818: v(dout)=0.31746 at 4.285e-006
analog_input_818: v(vin)=0.334766 at 4.285e-006
output_code_819: v(dout)=0.31746 at 4.29e-006
analog_input_819: v(vin)=0.335156 at 4.29e-006
output_code_820: v(dout)=0.31746 at 4.295e-006
analog_input_820: v(vin)=0.335547 at 4.295e-006
output_code_821: v(dout)=0.31746 at 4.3e-006
analog_input_821: v(vin)=0.335938 at 4.3e-006
output_code_822: v(dout)=0.31746 at 4.305e-006
analog_input_822: v(vin)=0.336328 at 4.305e-006
output_code_823: v(dout)=0.31746 at 4.31e-006
analog_input_823: v(vin)=0.336719 at 4.31e-006
output_code_824: v(dout)=0.31746 at 4.315e-006
analog_input_824: v(vin)=0.337109 at 4.315e-006
output_code_825: v(dout)=0.31746 at 4.32e-006
analog_input_825: v(vin)=0.3375 at 4.32e-006
output_code_826: v(dout)=0.31746 at 4.325e-006
analog_input_826: v(vin)=0.337891 at 4.325e-006
output_code_827: v(dout)=0.31746 at 4.33e-006
analog_input_827: v(vin)=0.338281 at 4.33e-006
output_code_828: v(dout)=0.31746 at 4.335e-006
analog_input_828: v(vin)=0.338672 at 4.335e-006
output_code_829: v(dout)=0.31746 at 4.34e-006
analog_input_829: v(vin)=0.339062 at 4.34e-006
output_code_830: v(dout)=0.31746 at 4.345e-006
analog_input_830: v(vin)=0.339453 at 4.345e-006
output_code_831: v(dout)=0.31746 at 4.35e-006
analog_input_831: v(vin)=0.339844 at 4.35e-006
output_code_832: v(dout)=0.31746 at 4.355e-006
[...]
output_code_2324: v(dout)=0.920635 at 1.1815e-005
analog_input_2324: v(vin)=0.923047 at 1.1815e-005
output_code_2325: v(dout)=0.920635 at 1.182e-005
analog_input_2325: v(vin)=0.923438 at 1.182e-005
output_code_2326: v(dout)=0.920635 at 1.1825e-005
analog_input_2326: v(vin)=0.923828 at 1.1825e-005
output_code_2327: v(dout)=0.920635 at 1.183e-005
analog_input_2327: v(vin)=0.924219 at 1.183e-005
output_code_2328: v(dout)=0.920635 at 1.1835e-005
analog_input_2328: v(vin)=0.924609 at 1.1835e-005
output_code_2329: v(dout)=0.920635 at 1.184e-005
analog_input_2329: v(vin)=0.925 at 1.184e-005
output_code_2330: v(dout)=0.920635 at 1.1845e-005
analog_input_2330: v(vin)=0.925391 at 1.1845e-005
output_code_2331: v(dout)=0.920635 at 1.185e-005
analog_input_2331: v(vin)=0.925781 at 1.185e-005
output_code_2332: v(dout)=0.920635 at 1.1855e-005
analog_input_2332: v(vin)=0.926172 at 1.1855e-005
output_code_2333: v(dout)=0.920635 at 1.186e-005
analog_input_2333: v(vin)=0.926563 at 1.186e-005
output_code_2334: v(dout)=0.920635 at 1.1865e-005
analog_input_2334: v(vin)=0.926953 at 1.1865e-005
output_code_2335: v(dout)=0.920635 at 1.187e-005
analog_input_2335: v(vin)=0.927344 at 1.187e-005
output_code_2336: v(dout)=0.920635 at 1.1875e-005
analog_input_2336: v(vin)=0.927734 at 1.1875e-005
output_code_2337: v(dout)=0.920635 at 1.188e-005
analog_input_2337: v(vin)=0.928125 at 1.188e-005
output_code_2338: v(dout)=0.920635 at 1.1885e-005
analog_input_2338: v(vin)=0.928516 at 1.1885e-005
output_code_2339: v(dout)=0.920635 at 1.189e-005
analog_input_2339: v(vin)=0.928906 at 1.189e-005
output_code_2340: v(dout)=0.920635 at 1.1895e-005
analog_input_2340: v(vin)=0.929297 at 1.1895e-005
output_code_2341: v(dout)=0.920635 at 1.19e-005
analog_input_2341: v(vin)=0.929688 at 1.19e-005
output_code_2342: v(dout)=0.920635 at 1.1905e-005
analog_input_2342: v(vin)=0.930078 at 1.1905e-005
output_code_2343: v(dout)=0.920635 at 1.191e-005
analog_input_2343: v(vin)=0.930469 at 1.191e-005
output_code_2344: v(dout)=0.920635 at 1.1915e-005
analog_input_2344: v(vin)=0.930859 at 1.1915e-005
output_code_2345: v(dout)=0.920635 at 1.192e-005
analog_input_2345: v(vin)=0.93125 at 1.192e-005
output_code_2346: v(dout)=0.920635 at 1.1925e-005
analog_input_2346: v(vin)=0.931641 at 1.1925e-005
output_code_2347: v(dout)=0.920635 at 1.193e-005
analog_input_2347: v(vin)=0.932031 at 1.193e-005
output_code_2348: v(dout)=0.920635 at 1.1935e-005
analog_input_2348: v(vin)=0.932422 at 1.1935e-005
output_code_2349: v(dout)=0.920635 at 1.194e-005
analog_input_2349: v(vin)=0.932813 at 1.194e-005
output_code_2350: v(dout)=0.920635 at 1.1945e-005
analog_input_2350: v(vin)=0.933203 at 1.1945e-005
output_code_2351: v(dout)=0.920635 at 1.195e-005
analog_input_2351: v(vin)=0.933594 at 1.195e-005
output_code_2352: v(dout)=0.920635 at 1.1955e-005
analog_input_2352: v(vin)=0.933984 at 1.1955e-005
output_code_2353: v(dout)=0.920635 at 1.196e-005
analog_input_2353: v(vin)=0.934375 at 1.196e-005
output_code_2354: v(dout)=0.920635 at 1.1965e-005
analog_input_2354: v(vin)=0.934766 at 1.1965e-005
output_code_2355: v(dout)=0.920635 at 1.197e-005
analog_input_2355: v(vin)=0.935156 at 1.197e-005
output_code_2356: v(dout)=0.920635 at 1.1975e-005
analog_input_2356: v(vin)=0.935547 at 1.1975e-005
output_code_2357: v(dout)=0.920635 at 1.198e-005
analog_input_2357: v(vin)=0.935938 at 1.198e-005
output_code_2358: v(dout)=0.936508 at 1.1985e-005
analog_input_2358: v(vin)=0.936328 at 1.1985e-005
output_code_2359: v(dout)=0.936508 at 1.199e-005
analog_input_2359: v(vin)=0.936719 at 1.199e-005
output_code_2360: v(dout)=0.936508 at 1.1995e-005
analog_input_2360: v(vin)=0.937109 at 1.1995e-005
output_code_2361: v(dout)=0.936508 at 1.2e-005
analog_input_2361: v(vin)=0.9375 at 1.2e-005
output_code_2362: v(dout)=0.936508 at 1.2005e-005
analog_input_2362: v(vin)=0.937891 at 1.2005e-005
output_code_2363: v(dout)=0.936508 at 1.201e-005
analog_input_2363: v(vin)=0.938281 at 1.201e-005
output_code_2364: v(dout)=0.936508 at 1.2015e-005
analog_input_2364: v(vin)=0.938672 at 1.2015e-005
output_code_2365: v(dout)=0.936508 at 1.202e-005
analog_input_2365: v(vin)=0.939063 at 1.202e-005
output_code_2366: v(dout)=0.936508 at 1.2025e-005
analog_input_2366: v(vin)=0.939453 at 1.2025e-005
output_code_2367: v(dout)=0.936508 at 1.203e-005
analog_input_2367: v(vin)=0.939844 at 1.203e-005
output_code_2368: v(dout)=0.936508 at 1.2035e-005
analog_input_2368: v(vin)=0.940234 at 1.2035e-005
output_code_2369: v(dout)=0.936508 at 1.204e-005
analog_input_2369: v(vin)=0.940625 at 1.204e-005
output_code_2370: v(dout)=0.936508 at 1.2045e-005
analog_input_2370: v(vin)=0.941016 at 1.2045e-005
output_code_2371: v(dout)=0.936508 at 1.205e-005
analog_input_2371: v(vin)=0.941406 at 1.205e-005
output_code_2372: v(dout)=0.936508 at 1.2055e-005
analog_input_2372: v(vin)=0.941797 at 1.2055e-005
output_code_2373: v(dout)=0.936508 at 1.206e-005
analog_input_2373: v(vin)=0.942188 at 1.206e-005
output_code_2374: v(dout)=0.936508 at 1.2065e-005
analog_input_2374: v(vin)=0.942578 at 1.2065e-005
output_code_2375: v(dout)=0.936508 at 1.207e-005
analog_input_2375: v(vin)=0.942969 at 1.207e-005
output_code_2376: v(dout)=0.936508 at 1.2075e-005
analog_input_2376: v(vin)=0.943359 at 1.2075e-005
output_code_2377: v(dout)=0.936508 at 1.208e-005
analog_input_2377: v(vin)=0.94375 at 1.208e-005
output_code_2378: v(dout)=0.936508 at 1.2085e-005
analog_input_2378: v(vin)=0.944141 at 1.2085e-005
output_code_2379: v(dout)=0.936508 at 1.209e-005
analog_input_2379: v(vin)=0.944531 at 1.209e-005
output_code_2380: v(dout)=0.936508 at 1.2095e-005
analog_input_2380: v(vin)=0.944922 at 1.2095e-005
output_code_2381: v(dout)=0.936508 at 1.21e-005
analog_input_2381: v(vin)=0.945313 at 1.21e-005
output_code_2382: v(dout)=0.936508 at 1.2105e-005
analog_input_2382: v(vin)=0.945703 at 1.2105e-005
output_code_2383: v(dout)=0.936508 at 1.211e-005
analog_input_2383: v(vin)=0.946094 at 1.211e-005
output_code_2384: v(dout)=0.936508 at 1.2115e-005
analog_input_2384: v(vin)=0.946484 at 1.2115e-005
output_code_2385: v(dout)=0.936508 at 1.212e-005
analog_input_2385: v(vin)=0.946875 at 1.212e-005
output_code_2386: v(dout)=0.936508 at 1.2125e-005
analog_input_2386: v(vin)=0.947266 at 1.2125e-005
output_code_2387: v(dout)=0.936508 at 1.213e-005
analog_input_2387: v(vin)=0.947656 at 1.213e-005
output_code_2388: v(dout)=0.936508 at 1.2135e-005
analog_input_2388: v(vin)=0.948047 at 1.2135e-005
output_code_2389: v(dout)=0.936508 at 1.214e-005
analog_input_2389: v(vin)=0.948438 at 1.214e-005
output_code_2390: v(dout)=0.936508 at 1.2145e-005
analog_input_2390: v(vin)=0.948828 at 1.2145e-005
output_code_2391: v(dout)=0.936508 at 1.215e-005
analog_input_2391: v(vin)=0.949219 at 1.215e-005
output_code_2392: v(dout)=0.936508 at 1.2155e-005
analog_input_2392: v(vin)=0.949609 at 1.2155e-005
output_code_2393: v(dout)=0.936508 at 1.216e-005
analog_input_2393: v(vin)=0.95 at 1.216e-005
output_code_2394: v(dout)=0.936508 at 1.2165e-005
analog_input_2394: v(vin)=0.950391 at 1.2165e-005
output_code_2395: v(dout)=0.936508 at 1.217e-005
analog_input_2395: v(vin)=0.950781 at 1.217e-005
output_code_2396: v(dout)=0.936508 at 1.2175e-005
analog_input_2396: v(vin)=0.951172 at 1.2175e-005
output_code_2397: v(dout)=0.936508 at 1.218e-005
analog_input_2397: v(vin)=0.951562 at 1.218e-005
output_code_2398: v(dout)=0.952381 at 1.2185e-005
analog_input_2398: v(vin)=0.951953 at 1.2185e-005
output_code_2399: v(dout)=0.952381 at 1.219e-005
analog_input_2399: v(vin)=0.952344 at 1.219e-005
output_code_2400: v(dout)=0.952381 at 1.2195e-005
analog_input_2400: v(vin)=0.952734 at 1.2195e-005
output_code_2401: v(dout)=0.952381 at 1.22e-005
analog_input_2401: v(vin)=0.953125 at 1.22e-005
output_code_2402: v(dout)=0.952381 at 1.2205e-005
analog_input_2402: v(vin)=0.953516 at 1.2205e-005
output_code_2403: v(dout)=0.952381 at 1.221e-005
analog_input_2403: v(vin)=0.953906 at 1.221e-005
output_code_2404: v(dout)=0.952381 at 1.2215e-005
analog_input_2404: v(vin)=0.954297 at 1.2215e-005
output_code_2405: v(dout)=0.952381 at 1.222e-005
analog_input_2405: v(vin)=0.954688 at 1.222e-005
output_code_2406: v(dout)=0.952381 at 1.2225e-005
analog_input_2406: v(vin)=0.955078 at 1.2225e-005
output_code_2407: v(dout)=0.952381 at 1.223e-005
analog_input_2407: v(vin)=0.955469 at 1.223e-005
output_code_2408: v(dout)=0.952381 at 1.2235e-005
analog_input_2408: v(vin)=0.955859 at 1.2235e-005
output_code_2409: v(dout)=0.952381 at 1.224e-005
analog_input_2409: v(vin)=0.95625 at 1.224e-005
output_code_2410: v(dout)=0.952381 at 1.2245e-005
analog_input_2410: v(vin)=0.956641 at 1.2245e-005
output_code_2411: v(dout)=0.952381 at 1.225e-005
analog_input_2411: v(vin)=0.957031 at 1.225e-005
output_code_2412: v(dout)=0.952381 at 1.2255e-005
analog_input_2412: v(vin)=0.957422 at 1.2255e-005
output_code_2413: v(dout)=0.952381 at 1.226e-005
analog_input_2413: v(vin)=0.957813 at 1.226e-005
output_code_2414: v(dout)=0.952381 at 1.2265e-005
analog_input_2414: v(vin)=0.958203 at 1.2265e-005
output_code_2415: v(dout)=0.952381 at 1.227e-005
analog_input_2415: v(vin)=0.958594 at 1.227e-005
output_code_2416: v(dout)=0.952381 at 1.2275e-005
analog_input_2416: v(vin)=0.958984 at 1.2275e-005
output_code_2417: v(dout)=0.952381 at 1.228e-005
analog_input_2417: v(vin)=0.959375 at 1.228e-005
output_code_2418: v(dout)=0.952381 at 1.2285e-005
analog_input_2418: v(vin)=0.959766 at 1.2285e-005
output_code_2419: v(dout)=0.952381 at 1.229e-005
analog_input_2419: v(vin)=0.960156 at 1.229e-005
output_code_2420: v(dout)=0.952381 at 1.2295e-005
analog_input_2420: v(vin)=0.960547 at 1.2295e-005
output_code_2421: v(dout)=0.952381 at 1.23e-005
analog_input_2421: v(vin)=0.960938 at 1.23e-005
output_code_2422: v(dout)=0.952381 at 1.2305e-005
analog_input_2422: v(vin)=0.961328 at 1.2305e-005
output_code_2423: v(dout)=0.952381 at 1.231e-005
analog_input_2423: v(vin)=0.961719 at 1.231e-005
output_code_2424: v(dout)=0.952381 at 1.2315e-005
analog_input_2424: v(vin)=0.962109 at 1.2315e-005
output_code_2425: v(dout)=0.952381 at 1.232e-005
analog_input_2425: v(vin)=0.9625 at 1.232e-005
output_code_2426: v(dout)=0.952381 at 1.2325e-005
analog_input_2426: v(vin)=0.962891 at 1.2325e-005
output_code_2427: v(dout)=0.952381 at 1.233e-005
analog_input_2427: v(vin)=0.963281 at 1.233e-005
output_code_2428: v(dout)=0.952381 at 1.2335e-005
analog_input_2428: v(vin)=0.963672 at 1.2335e-005
output_code_2429: v(dout)=0.952381 at 1.234e-005
analog_input_2429: v(vin)=0.964063 at 1.234e-005
output_code_2430: v(dout)=0.952381 at 1.2345e-005
analog_input_2430: v(vin)=0.964453 at 1.2345e-005
output_code_2431: v(dout)=0.952381 at 1.235e-005
analog_input_2431: v(vin)=0.964844 at 1.235e-005
output_code_2432: v(dout)=0.952381 at 1.2355e-005
analog_input_2432: v(vin)=0.965234 at 1.2355e-005
output_code_2433: v(dout)=0.952381 at 1.236e-005
analog_input_2433: v(vin)=0.965625 at 1.236e-005
output_code_2434: v(dout)=0.952381 at 1.2365e-005
analog_input_2434: v(vin)=0.966016 at 1.2365e-005
output_code_2435: v(dout)=0.952381 at 1.237e-005
analog_input_2435: v(vin)=0.966406 at 1.237e-005
output_code_2436: v(dout)=0.952381 at 1.2375e-005
analog_input_2436: v(vin)=0.966797 at 1.2375e-005
output_code_2437: v(dout)=0.952381 at 1.238e-005
analog_input_2437: v(vin)=0.967188 at 1.238e-005
output_code_2438: v(dout)=0.968254 at 1.2385e-005
analog_input_2438: v(vin)=0.967578 at 1.2385e-005
output_code_2439: v(dout)=0.968254 at 1.239e-005
analog_input_2439: v(vin)=0.967969 at 1.239e-005
output_code_2440: v(dout)=0.968254 at 1.2395e-005
analog_input_2440: v(vin)=0.968359 at 1.2395e-005
output_code_2441: v(dout)=0.968254 at 1.24e-005
analog_input_2441: v(vin)=0.96875 at 1.24e-005
output_code_2442: v(dout)=0.968254 at 1.2405e-005
analog_input_2442: v(vin)=0.969141 at 1.2405e-005
output_code_2443: v(dout)=0.968254 at 1.241e-005
analog_input_2443: v(vin)=0.969531 at 1.241e-005
output_code_2444: v(dout)=0.968254 at 1.2415e-005
analog_input_2444: v(vin)=0.969922 at 1.2415e-005
output_code_2445: v(dout)=0.968254 at 1.242e-005
analog_input_2445: v(vin)=0.970313 at 1.242e-005
output_code_2446: v(dout)=0.968254 at 1.2425e-005
analog_input_2446: v(vin)=0.970703 at 1.2425e-005
output_code_2447: v(dout)=0.968254 at 1.243e-005
analog_input_2447: v(vin)=0.971094 at 1.243e-005
output_code_2448: v(dout)=0.968254 at 1.2435e-005
analog_input_2448: v(vin)=0.971484 at 1.2435e-005
output_code_2449: v(dout)=0.968254 at 1.244e-005
analog_input_2449: v(vin)=0.971875 at 1.244e-005
output_code_2450: v(dout)=0.968254 at 1.2445e-005
analog_input_2450: v(vin)=0.972266 at 1.2445e-005
output_code_2451: v(dout)=0.968254 at 1.245e-005
analog_input_2451: v(vin)=0.972656 at 1.245e-005
output_code_2452: v(dout)=0.968254 at 1.2455e-005
analog_input_2452: v(vin)=0.973047 at 1.2455e-005
output_code_2453: v(dout)=0.968254 at 1.246e-005
analog_input_2453: v(vin)=0.973438 at 1.246e-005
output_code_2454: v(dout)=0.968254 at 1.2465e-005
analog_input_2454: v(vin)=0.973828 at 1.2465e-005
output_code_2455: v(dout)=0.968254 at 1.247e-005
analog_input_2455: v(vin)=0.974219 at 1.247e-005
output_code_2456: v(dout)=0.968254 at 1.2475e-005
analog_input_2456: v(vin)=0.974609 at 1.2475e-005
output_code_2457: v(dout)=0.968254 at 1.248e-005
analog_input_2457: v(vin)=0.975 at 1.248e-005
output_code_2458: v(dout)=0.968254 at 1.2485e-005
analog_input_2458: v(vin)=0.975391 at 1.2485e-005
output_code_2459: v(dout)=0.968254 at 1.249e-005
analog_input_2459: v(vin)=0.975781 at 1.249e-005
output_code_2460: v(dout)=0.968254 at 1.2495e-005
analog_input_2460: v(vin)=0.976172 at 1.2495e-005
output_code_2461: v(dout)=0.968254 at 1.25e-005
analog_input_2461: v(vin)=0.976563 at 1.25e-005
output_code_2462: v(dout)=0.968254 at 1.2505e-005
analog_input_2462: v(vin)=0.976953 at 1.2505e-005
output_code_2463: v(dout)=0.968254 at 1.251e-005
analog_input_2463: v(vin)=0.977344 at 1.251e-005
output_code_2464: v(dout)=0.968254 at 1.2515e-005
analog_input_2464: v(vin)=0.977734 at 1.2515e-005
output_code_2465: v(dout)=0.968254 at 1.252e-005
analog_input_2465: v(vin)=0.978125 at 1.252e-005
output_code_2466: v(dout)=0.968254 at 1.2525e-005
analog_input_2466: v(vin)=0.978516 at 1.2525e-005
output_code_2467: v(dout)=0.968254 at 1.253e-005
analog_input_2467: v(vin)=0.978906 at 1.253e-005
output_code_2468: v(dout)=0.968254 at 1.2535e-005
analog_input_2468: v(vin)=0.979297 at 1.2535e-005
output_code_2469: v(dout)=0.968254 at 1.254e-005
analog_input_2469: v(vin)=0.979688 at 1.254e-005
output_code_2470: v(dout)=0.968254 at 1.2545e-005
analog_input_2470: v(vin)=0.980078 at 1.2545e-005
output_code_2471: v(dout)=0.968254 at 1.255e-005
analog_input_2471: v(vin)=0.980469 at 1.255e-005
output_code_2472: v(dout)=0.968254 at 1.2555e-005
analog_input_2472: v(vin)=0.980859 at 1.2555e-005
output_code_2473: v(dout)=0.968254 at 1.256e-005
analog_input_2473: v(vin)=0.98125 at 1.256e-005
output_code_2474: v(dout)=0.968254 at 1.2565e-005
analog_input_2474: v(vin)=0.981641 at 1.2565e-005
output_code_2475: v(dout)=0.968254 at 1.257e-005
analog_input_2475: v(vin)=0.982031 at 1.257e-005
output_code_2476: v(dout)=0.968254 at 1.2575e-005
analog_input_2476: v(vin)=0.982422 at 1.2575e-005
output_code_2477: v(dout)=0.968254 at 1.258e-005
analog_input_2477: v(vin)=0.982813 at 1.258e-005
output_code_2478: v(dout)=0.984127 at 1.2585e-005
analog_input_2478: v(vin)=0.983203 at 1.2585e-005
output_code_2479: v(dout)=0.984127 at 1.259e-005
analog_input_2479: v(vin)=0.983594 at 1.259e-005
output_code_2480: v(dout)=0.984127 at 1.2595e-005
analog_input_2480: v(vin)=0.983984 at 1.2595e-005
output_code_2481: v(dout)=0.984127 at 1.26e-005
analog_input_2481: v(vin)=0.984375 at 1.26e-005
output_code_2482: v(dout)=0.984127 at 1.2605e-005
analog_input_2482: v(vin)=0.984766 at 1.2605e-005
output_code_2483: v(dout)=0.984127 at 1.261e-005
analog_input_2483: v(vin)=0.985156 at 1.261e-005
output_code_2484: v(dout)=0.984127 at 1.2615e-005
analog_input_2484: v(vin)=0.985547 at 1.2615e-005
output_code_2485: v(dout)=0.984127 at 1.262e-005
analog_input_2485: v(vin)=0.985938 at 1.262e-005
output_code_2486: v(dout)=0.984127 at 1.2625e-005
analog_input_2486: v(vin)=0.986328 at 1.2625e-005
output_code_2487: v(dout)=0.984127 at 1.263e-005
analog_input_2487: v(vin)=0.986719 at 1.263e-005
output_code_2488: v(dout)=0.984127 at 1.2635e-005
analog_input_2488: v(vin)=0.987109 at 1.2635e-005
output_code_2489: v(dout)=0.984127 at 1.264e-005
analog_input_2489: v(vin)=0.9875 at 1.264e-005
output_code_2490: v(dout)=0.984127 at 1.2645e-005
analog_input_2490: v(vin)=0.987891 at 1.2645e-005
output_code_2491: v(dout)=0.984127 at 1.265e-005
analog_input_2491: v(vin)=0.988281 at 1.265e-005
output_code_2492: v(dout)=0.984127 at 1.2655e-005
analog_input_2492: v(vin)=0.988672 at 1.2655e-005
output_code_2493: v(dout)=0.984127 at 1.266e-005
analog_input_2493: v(vin)=0.989063 at 1.266e-005
output_code_2494: v(dout)=0.984127 at 1.2665e-005
analog_input_2494: v(vin)=0.989453 at 1.2665e-005
output_code_2495: v(dout)=0.984127 at 1.267e-005
analog_input_2495: v(vin)=0.989844 at 1.267e-005
output_code_2496: v(dout)=0.984127 at 1.2675e-005
analog_input_2496: v(vin)=0.990234 at 1.2675e-005
output_code_2497: v(dout)=0.984127 at 1.268e-005
analog_input_2497: v(vin)=0.990625 at 1.268e-005
output_code_2498: v(dout)=0.984127 at 1.2685e-005
analog_input_2498: v(vin)=0.991016 at 1.2685e-005
output_code_2499: v(dout)=0.984127 at 1.269e-005
analog_input_2499: v(vin)=0.991406 at 1.269e-005
output_code_2500: v(dout)=0.984127 at 1.2695e-005
analog_input_2500: v(vin)=0.991797 at 1.2695e-005
output_code_2501: v(dout)=0.984127 at 1.27e-005
analog_input_2501: v(vin)=0.992188 at 1.27e-005
output_code_2502: v(dout)=0.984127 at 1.2705e-005
analog_input_2502: v(vin)=0.992578 at 1.2705e-005
output_code_2503: v(dout)=0.984127 at 1.271e-005
analog_input_2503: v(vin)=0.992969 at 1.271e-005
output_code_2504: v(dout)=0.984127 at 1.2715e-005
analog_input_2504: v(vin)=0.993359 at 1.2715e-005
output_code_2505: v(dout)=0.984127 at 1.272e-005
analog_input_2505: v(vin)=0.99375 at 1.272e-005
output_code_2506: v(dout)=0.984127 at 1.2725e-005
analog_input_2506: v(vin)=0.994141 at 1.2725e-005
output_code_2507: v(dout)=0.984127 at 1.273e-005
analog_input_2507: v(vin)=0.994531 at 1.273e-005
output_code_2508: v(dout)=0.984127 at 1.2735e-005
analog_input_2508: v(vin)=0.994922 at 1.2735e-005
output_code_2509: v(dout)=0.984127 at 1.274e-005
analog_input_2509: v(vin)=0.995313 at 1.274e-005
output_code_2510: v(dout)=0.984127 at 1.2745e-005
analog_input_2510: v(vin)=0.995703 at 1.2745e-005
output_code_2511: v(dout)=0.984127 at 1.275e-005
analog_input_2511: v(vin)=0.996094 at 1.275e-005
output_code_2512: v(dout)=0.984127 at 1.2755e-005
analog_input_2512: v(vin)=0.996484 at 1.2755e-005
output_code_2513: v(dout)=0.984127 at 1.276e-005
analog_input_2513: v(vin)=0.996875 at 1.276e-005
output_code_2514: v(dout)=0.984127 at 1.2765e-005
analog_input_2514: v(vin)=0.997266 at 1.2765e-005
output_code_2515: v(dout)=0.984127 at 1.277e-005
analog_input_2515: v(vin)=0.997656 at 1.277e-005
output_code_2516: v(dout)=0.984127 at 1.2775e-005
analog_input_2516: v(vin)=0.998047 at 1.2775e-005
output_code_2517: v(dout)=0.984127 at 1.278e-005
analog_input_2517: v(vin)=0.998438 at 1.278e-005
output_code_2518: v(dout)=1 at 1.2785e-005
analog_input_2518: v(vin)=0.998828 at 1.2785e-005
output_code_2519: v(dout)=1 at 1.279e-005
analog_input_2519: v(vin)=0.999219 at 1.279e-005
output_code_2520: v(dout)=1 at 1.2795e-005
analog_input_2520: v(vin)=0.999609 at 1.2795e-005
output_code_2521: v(dout)=1 at 1.28e-005
analog_input_2521: v(vin)=1 at 1.28e-005


Date: Sat Apr 23 10:08:18 2022
Total elapsed time: 112.498 seconds.

tnom = 27
temp = 27
method = modified trap
totiter = 594881
traniter = 594453
tranpoints = 199998
accept = 146410
rejected = 53588
matrix size = 794
fillins = 4536
solver = Normal
Thread vector: 177.5/122.1[6] 145.4/105.8[6] 4.0/9.1[1] 14.7/48.2[1]  2592/500
Matrix Compiler1: 1.03 MB object code size  210.9/181.9/[62.5]
Matrix Compiler2: 170.55 KB object code size  53.0/41.9/[42.3]

