Circuit: * C:\Users\jpa55\work\spice\saradc\tb_my_comparator.asc

Ignoring BSIM parameter XL
Ignoring BSIM parameter XW
Ignoring BSIM parameter XL
Ignoring BSIM parameter XW
Warning: Pd = 0 is less than W.
Warning: Ps = 0 is less than W.
Warning: Pd = 0 is less than W.
Warning: Ps = 0 is less than W.
Direct Newton iteration for .op point succeeded.

tl: v(voutp)=1.72 AT 1.56041e-009


Date: Sat Apr 23 09:41:21 2022
Total elapsed time: 0.183 seconds.

tnom = 27
temp = 27
method = modified trap
totiter = 3474
traniter = 3444
tranpoints = 1383
accept = 1281
rejected = 102
matrix size = 93
fillins = 184
solver = Normal
Matrix Compiler1: 18.76 KB object code size  4.5/1.4/[0.8]
Matrix Compiler2: 11.73 KB object code size  0.8/1.0/[0.7]

